####################################################################### 
# 
# This file contains crystal structure data downloaded from the 
# Cambridge Structural Database (CSD) hosted by the Cambridge 
# Crystallographic Data Centre (CCDC).
# 
# Full information about CCDC data access policies and citation 
# guidelines are available at http://www.ccdc.cam.ac.uk/access/V1 
# 
# Audit and citation data items may have been added by the CCDC. 
# Please retain this information to preserve the provenance of 
# this file and to allow appropriate attribution of the data. 
# 
#######################################################################

data_1
_audit_block_doi                 10.5517/ccdc.csd.cc1m9907
_database_code_depnum_ccdc_archive 'CCDC 1498478'
loop_
_citation_id
_citation_doi
_citation_year
1 10.1021/acsami.6b11797 2017
_audit_update_record             
;
2016-08-09 deposited with the CCDC.	2022-05-26 downloaded from the CCDC.
;

_audit_creation_method           SHELXL-2014/7
_shelx_SHELXL_version_number     2014/7
_chemical_name_systematic        ?
_chemical_name_common            ?
_chemical_melting_point          ?
_chemical_formula_moiety         'C22 H18 N4 O4 S2 Zn, 0.4(H4 O2), 1.2(H2 O)'
_chemical_formula_sum            'C22 H22 N4 O6 S2 Zn'
_chemical_formula_weight         567.92

loop_
_atom_type_symbol
_atom_type_description
_atom_type_scat_dispersion_real
_atom_type_scat_dispersion_imag
_atom_type_scat_source
C C 0.0033 0.0016 'International Tables Vol C Tables 4.2.6.8 and 6.1.1.4'
H H 0.0000 0.0000 'International Tables Vol C Tables 4.2.6.8 and 6.1.1.4'
N N 0.0061 0.0033 'International Tables Vol C Tables 4.2.6.8 and 6.1.1.4'
O O 0.0106 0.0060 'International Tables Vol C Tables 4.2.6.8 and 6.1.1.4'
S S 0.1246 0.1234 'International Tables Vol C Tables 4.2.6.8 and 6.1.1.4'
Zn Zn 0.2839 1.4301 'International Tables Vol C Tables 4.2.6.8 and 6.1.1.4'

_space_group_crystal_system      monoclinic
_space_group_IT_number           12
_space_group_name_H-M_alt        'C 2/m'
_space_group_name_Hall           '-C 2y'

_shelx_space_group_comment       
;
The symmetry employed for this shelxl refinement is uniquely defined
by the following loop, which should always be used as a source of
symmetry information in preference to the above space-group names.
They are only intended as comments.
;

loop_
_space_group_symop_operation_xyz
'x, y, z'
'-x, y, -z'
'x+1/2, y+1/2, z'
'-x+1/2, y+1/2, -z'
'-x, -y, -z'
'x, -y, z'
'-x+1/2, -y+1/2, -z'
'x+1/2, -y+1/2, z'

_cell_length_a                   24.404(7)
_cell_length_b                   14.181(7)
_cell_length_c                   9.304(3)
_cell_angle_alpha                90
_cell_angle_beta                 99.608(8)
_cell_angle_gamma                90
_cell_volume                     3175(2)
_cell_formula_units_Z            4
_cell_measurement_temperature    291(2)
_cell_measurement_reflns_used    2115
_cell_measurement_theta_min      2.11
_cell_measurement_theta_max      25.32

_exptl_crystal_description       ?
_exptl_crystal_colour            ?
_exptl_crystal_density_meas      ?
_exptl_crystal_density_method    ?
_exptl_crystal_density_diffrn    1.188
_exptl_crystal_F_000             1168
_exptl_transmission_factor_min   ?
_exptl_transmission_factor_max   ?
_exptl_crystal_size_max          0.260
_exptl_crystal_size_mid          0.240
_exptl_crystal_size_min          0.220
_exptl_absorpt_coefficient_mu    0.940
_shelx_estimated_absorpt_T_min   0.792
_shelx_estimated_absorpt_T_max   0.820
_exptl_absorpt_correction_type   multi-scan
_exptl_absorpt_correction_T_min  0.80
_exptl_absorpt_correction_T_max  0.82
_exptl_absorpt_process_details   'SADABS; Bruker, 2008'
_exptl_absorpt_special_details   ?
_diffrn_ambient_temperature      291(2)
_diffrn_radiation_wavelength     0.71073
_diffrn_radiation_type           MoK\a
_diffrn_source                   ?
_diffrn_measurement_device_type  'Bruker APEX CCD area-detector'
_diffrn_measurement_method       ?
_diffrn_detector_area_resol_mean ?
_diffrn_reflns_number            11991
_diffrn_reflns_av_unetI/netI     0.0473
_diffrn_reflns_av_R_equivalents  0.0162
_diffrn_reflns_limit_h_min       -30
_diffrn_reflns_limit_h_max       30
_diffrn_reflns_limit_k_min       -17
_diffrn_reflns_limit_k_max       16
_diffrn_reflns_limit_l_min       -11
_diffrn_reflns_limit_l_max       10
_diffrn_reflns_theta_min         1.667
_diffrn_reflns_theta_max         26.000
_diffrn_reflns_theta_full        25.242
_diffrn_measured_fraction_theta_max 0.997
_diffrn_measured_fraction_theta_full 0.996
_diffrn_reflns_Laue_measured_fraction_max 0.997
_diffrn_reflns_Laue_measured_fraction_full 0.996
_diffrn_reflns_point_group_measured_fraction_max 0.997
_diffrn_reflns_point_group_measured_fraction_full 0.996
_reflns_number_total             3255
_reflns_number_gt                2647
_reflns_threshold_expression     'I > 2\s(I)'
_reflns_Friedel_coverage         0.000
_reflns_Friedel_fraction_max     .
_reflns_Friedel_fraction_full    .

_reflns_special_details          
;
 Reflections were merged by SHELXL according to the crystal
 class for the calculation of statistics and refinement.
 
 _reflns_Friedel_fraction is defined as the number of unique
 Friedel pairs measured divided by the number that would be
 possible theoretically, ignoring centric projections and
 systematic absences.
;

_computing_data_collection       'SMART (Bruker, 2008)'
_computing_cell_refinement       SMART
_computing_data_reduction        'SAINT (Bruker, 2008)'
_computing_structure_solution    'SHELXTL (Bruker, 2008)'
_computing_structure_refinement  'SHELXL-2014/7 (Sheldrick, 2014)'
_computing_molecular_graphics    SHELXTL
_computing_publication_material  SHELXTL

_refine_special_details          ?
_refine_ls_structure_factor_coef Fsqd
_refine_ls_matrix_type           full
_refine_ls_weighting_scheme      calc
_refine_ls_weighting_details     
'w=1/[\s^2^(Fo^2^)+(0.09P)^2^+1.99P] where P=(Fo^2^+2Fc^2^)/3'
_atom_sites_solution_primary     ?
_atom_sites_solution_secondary   ?
_atom_sites_solution_hydrogens   mixed
_refine_ls_hydrogen_treatment    constr
_refine_ls_extinction_method     none
_refine_ls_extinction_coef       .
_refine_ls_number_reflns         3255
_refine_ls_number_parameters     205
_refine_ls_number_restraints     8
_refine_ls_R_factor_all          0.0543
_refine_ls_R_factor_gt           0.0465
_refine_ls_wR_factor_ref         0.1477
_refine_ls_wR_factor_gt          0.1448
_refine_ls_goodness_of_fit_ref   1.053
_refine_ls_restrained_S_all      1.062
_refine_ls_shift/su_max          0.001
_refine_ls_shift/su_mean         0.000

loop_
_atom_site_label
_atom_site_type_symbol
_atom_site_fract_x
_atom_site_fract_y
_atom_site_fract_z
_atom_site_U_iso_or_equiv
_atom_site_adp_type
_atom_site_occupancy
_atom_site_site_symmetry_order
_atom_site_calc_flag
_atom_site_refinement_flags_posn
_atom_site_refinement_flags_adp
_atom_site_refinement_flags_occupancy
_atom_site_disorder_assembly
_atom_site_disorder_group
C1 C 0.33388(13) 0.3226(2) 1.1452(4) 0.0479(7) Uani 1 1 d . U . . .
H1 H 0.3685 0.3334 1.1193 0.058 Uiso 1 1 calc R U . . .
C2 C 0.32268(13) 0.2513(2) 1.2245(4) 0.0481(8) Uani 1 1 d . U . . .
H2 H 0.3478 0.2071 1.2706 0.058 Uiso 1 1 calc R U . . .
C3 C 0.24785(14) 0.3323(2) 1.1594(4) 0.0492(8) Uani 1 1 d . . . . .
H3 H 0.2109 0.3510 1.1517 0.059 Uiso 1 1 calc R U . . .
C4 C 0.23401(15) 0.1954(3) 1.3090(4) 0.0527(8) Uani 1 1 d . . . . .
H4A H 0.1956 0.2153 1.2838 0.063 Uiso 1 1 calc R U . . .
H4B H 0.2361 0.1301 1.2791 0.063 Uiso 1 1 calc R U . . .
C5 C 0.25112(15) 0.2015(2) 1.4693(4) 0.0513(8) Uani 1 1 d . . . . .
H5A H 0.2888 0.1779 1.4944 0.062 Uiso 1 1 calc R U . . .
H5B H 0.2273 0.1606 1.5152 0.062 Uiso 1 1 calc R U . . .
C6 C 0.38223(17) 0.5000 0.8816(5) 0.0419(10) Uani 1 2 d S T P . .
C7 C 0.41524(18) 0.5000 0.7610(5) 0.0454(10) Uani 1 2 d S T P . .
C8 C 0.47544(17) 0.5000 0.7861(5) 0.0403(9) Uani 1 2 d S T P . .
H8 H 0.4990 0.5000 0.8757 0.048 Uiso 1 2 calc R U P . .
C9 C 0.49140(18) 0.5000 0.6438(5) 0.0436(10) Uani 1 2 d S T P . .
C10 C 0.44651(16) 0.5000 0.5286(5) 0.0386(9) Uani 1 2 d S T P . .
C11 C 0.54482(17) 0.5000 0.6169(4) 0.0398(9) Uani 1 2 d S T P . .
H11 H 0.5747 0.5000 0.6932 0.048 Uiso 1 2 calc R U P . .
C12 C 0.16600(19) 0.5000 0.8794(6) 0.0527(11) Uani 1 2 d S TU P . .
C13 C 0.11666(19) 0.5000 0.7594(6) 0.0505(11) Uani 1 2 d S T P . .
C14 C 0.05966(19) 0.5000 0.7833(6) 0.0525(11) Uani 1 2 d S T P . .
H14 H 0.0472 0.5000 0.8725 0.063 Uiso 1 2 calc R U P . .
C15 C 0.0259(2) 0.5000 0.6401(6) 0.0567(12) Uani 1 2 d S TU P . .
C16 C 0.05689(19) 0.5000 0.5290(4) 0.0499(11) Uani 1 2 d DS TU P . .
C17 C -0.0311(2) 0.5000 0.6158(4) 0.0605(14) Uani 1 2 d S T P . .
H17 H -0.0513 0.5000 0.6920 0.073 Uiso 1 2 calc R U P . .
N1 N 0.28734(11) 0.3811(2) 1.1035(3) 0.0492(6) Uani 1 1 d . U . . .
N2 N 0.26883(11) 0.2542(2) 1.2266(3) 0.0487(6) Uani 1 1 d . U . . .
O1 O 0.33035(13) 0.5000 0.8373(3) 0.0462(7) Uani 1 2 d S T P . .
O2 O 0.40651(12) 0.5000 1.0130(3) 0.0458(7) Uani 1 2 d S T P . .
O3 O 0.21161(12) 0.5000 0.8347(4) 0.0493(7) Uani 1 2 d S TU P . .
O4 O 0.15782(13) 0.5000 1.0106(4) 0.0509(8) Uani 1 2 d S TU P . .
O1WA O 1.0168(4) 0.7580(6) 0.7132(9) 0.065(2) Uani 0.3 1 d . . P . .
H1WB H 1.0141 0.7656 0.6216 0.098 Uiso 0.3 1 d R U P . .
H1WC H 1.0250 0.8103 0.7561 0.098 Uiso 0.3 1 d R U P . .
O1WB O 0.9294(4) 0.7348(6) 0.7799(9) 0.060(2) Uani 0.3 1 d . . P . .
H1WE H 0.9065 0.7152 0.7069 0.091 Uiso 0.3 1 d R U P . .
H1WF H 0.9320 0.6943 0.8481 0.091 Uiso 0.3 1 d R U P . .
O1WC O 0.1594(3) 0.5422(4) 0.3313(8) 0.0649(17) Uani 0.4 1 d . . P . .
H1WH H 0.1765 0.5205 0.4115 0.078 Uiso 0.4 1 d R U P . .
H1WA H 0.1749 0.5226 0.2617 0.097 Uiso 0.4 1 d R U P . .
S1 S 0.38390(4) 0.5000 0.58492(12) 0.0409(3) Uani 1 2 d S T P . .
S2 S 0.12671(5) 0.5000 0.58286(15) 0.0558(3) Uani 1 2 d S T P . .
Zn1 Zn 0.28140(2) 0.5000 0.99448(5) 0.0408(2) Uani 1 2 d S TU P . .

loop_
_atom_site_aniso_label
_atom_site_aniso_U_11
_atom_site_aniso_U_22
_atom_site_aniso_U_33
_atom_site_aniso_U_23
_atom_site_aniso_U_13
_atom_site_aniso_U_12
C1 0.0476(16) 0.0495(19) 0.0504(18) 0.0100(15) 0.0190(14) 0.0084(13)
C2 0.0484(17) 0.0474(18) 0.0514(19) 0.0132(15) 0.0162(14) 0.0064(14)
C3 0.0480(17) 0.054(2) 0.0461(18) 0.0035(15) 0.0086(14) -0.0077(15)
C4 0.061(2) 0.0487(19) 0.0501(19) -0.0043(15) 0.0151(16) -0.0164(15)
C5 0.0580(19) 0.0499(19) 0.0493(19) -0.0023(15) 0.0187(15) -0.0156(15)
C6 0.034(2) 0.054(3) 0.039(2) 0.000 0.0112(17) 0.000
C7 0.046(2) 0.055(3) 0.038(2) 0.000 0.0142(19) 0.000
C8 0.040(2) 0.051(3) 0.031(2) 0.000 0.0106(17) 0.000
C9 0.047(2) 0.057(3) 0.028(2) 0.000 0.0075(17) 0.000
C10 0.036(2) 0.045(2) 0.037(2) 0.000 0.0129(17) 0.000
C11 0.039(2) 0.049(2) 0.031(2) 0.000 0.0042(16) 0.000
C12 0.041(2) 0.057(3) 0.054(3) 0.000 -0.0114(19) 0.000
C13 0.044(2) 0.046(3) 0.057(3) 0.000 -0.003(2) 0.000
C14 0.042(2) 0.058(3) 0.057(3) 0.000 0.007(2) 0.000
C15 0.055(3) 0.053(3) 0.061(3) 0.000 0.007(2) 0.000
C16 0.047(2) 0.047(3) 0.049(3) 0.000 -0.0138(19) 0.000
C17 0.060(3) 0.053(3) 0.058(3) 0.000 -0.019(2) 0.000
N1 0.0504(14) 0.0593(17) 0.0386(14) 0.0045(12) 0.0096(11) 0.0035(12)
N2 0.0528(15) 0.0470(16) 0.0465(15) 0.0018(13) 0.0091(12) -0.0143(12)
O1 0.0484(17) 0.0494(18) 0.0428(17) 0.000 0.0138(13) 0.000
O2 0.0439(16) 0.0527(19) 0.0410(17) 0.000 0.0079(13) 0.000
O3 0.0403(14) 0.0544(19) 0.0514(17) 0.000 0.0022(9) 0.000
O4 0.0445(17) 0.0503(19) 0.0588(19) 0.000 0.0107(15) 0.000
O1WA 0.085(6) 0.056(5) 0.058(5) -0.004(4) 0.021(4) 0.001(4)
O1WB 0.071(5) 0.052(5) 0.058(5) 0.000(4) 0.010(4) -0.009(4)
O1WC 0.073(4) 0.055(3) 0.069(4) -0.003(3) 0.017(3) 0.000(3)
S1 0.0365(5) 0.0478(6) 0.0395(6) 0.000 0.0099(4) 0.000
S2 0.0518(7) 0.0503(7) 0.0576(8) 0.000 -0.0135(5) 0.000
Zn1 0.0362(3) 0.0504(3) 0.0357(3) 0.000 0.00534(19) 0.000

_geom_special_details            
;
 All esds (except the esd in the dihedral angle between two l.s. planes)
 are estimated using the full covariance matrix.  The cell esds are taken
 into account individually in the estimation of esds in distances, angles
 and torsion angles; correlations between esds in cell parameters are only
 used when they are defined by crystal symmetry.  An approximate (isotropic)
 treatment of cell esds is used for estimating esds involving l.s. planes.
;

loop_
_geom_bond_atom_site_label_1
_geom_bond_atom_site_label_2
_geom_bond_distance
_geom_bond_site_symmetry_2
_geom_bond_publ_flag
C1 C2 1.307(4) . ?
C1 N1 1.408(4) . ?
C1 H1 0.9300 . ?
C2 N2 1.318(4) . ?
C2 H2 0.9300 . ?
C3 N2 1.331(4) . ?
C3 N1 1.359(4) . ?
C3 H3 0.9300 . ?
C4 C5 1.483(5) . ?
C4 N2 1.491(4) . ?
C4 H4A 0.9700 . ?
C4 H4B 0.9700 . ?
C5 C5 1.493(7) 7_558 ?
C5 H5A 0.9700 . ?
C5 H5B 0.9700 . ?
C6 O1 1.264(5) . ?
C6 O2 1.267(5) . ?
C6 C7 1.487(6) . ?
C7 C8 1.449(6) . ?
C7 S1 1.688(5) . ?
C8 C9 1.441(6) . ?
C8 H8 0.9300 . ?
C9 C11 1.368(6) . ?
C9 C10 1.399(6) . ?
C10 C11 1.404(6) 5_666 ?
C10 S1 1.696(4) . ?
C11 C10 1.404(6) 5_666 ?
C11 H11 0.9300 . ?
C12 O3 1.252(6) . ?
C12 O4 1.269(6) . ?
C12 C13 1.499(6) . ?
C13 C14 1.445(7) . ?
C13 S2 1.700(6) . ?
C14 C15 1.444(7) . ?
C14 H14 0.9300 . ?
C15 C17 1.372(7) . ?
C15 C16 1.379(7) . ?
C16 C17 1.3886(11) 5_566 ?
C16 S2 1.694(4) . ?
C17 C16 1.3886(11) 5_566 ?
C17 H17 0.9300 . ?
N1 Zn1 1.960(3) . ?
O1 Zn1 2.037(3) . ?
O3 Zn1 2.065(3) . ?
O1WA H1WB 0.8500 . ?
O1WA H1WC 0.8500 . ?
O1WB H1WE 0.8499 . ?
O1WB H1WF 0.8500 . ?
O1WC O1WC 1.198(12) 6_565 ?
O1WC H1WH 0.8499 . ?
O1WC H1WA 0.8500 . ?
Zn1 N1 1.960(3) 6_565 ?

loop_
_geom_angle_atom_site_label_1
_geom_angle_atom_site_label_2
_geom_angle_atom_site_label_3
_geom_angle
_geom_angle_site_symmetry_1
_geom_angle_site_symmetry_3
_geom_angle_publ_flag
C2 C1 N1 112.1(3) . . ?
C2 C1 H1 123.9 . . ?
N1 C1 H1 123.9 . . ?
C1 C2 N2 106.7(3) . . ?
C1 C2 H2 126.7 . . ?
N2 C2 H2 126.7 . . ?
N2 C3 N1 111.2(3) . . ?
N2 C3 H3 124.4 . . ?
N1 C3 H3 124.4 . . ?
C5 C4 N2 113.3(3) . . ?
C5 C4 H4A 108.9 . . ?
N2 C4 H4A 108.9 . . ?
C5 C4 H4B 108.9 . . ?
N2 C4 H4B 108.9 . . ?
H4A C4 H4B 107.7 . . ?
C4 C5 C5 114.6(4) . 7_558 ?
C4 C5 H5A 108.6 . . ?
C5 C5 H5A 108.6 7_558 . ?
C4 C5 H5B 108.6 . . ?
C5 C5 H5B 108.6 7_558 . ?
H5A C5 H5B 107.6 . . ?
O1 C6 O2 126.6(4) . . ?
O1 C6 C7 113.2(4) . . ?
O2 C6 C7 120.3(4) . . ?
C8 C7 C6 122.7(4) . . ?
C8 C7 S1 116.1(3) . . ?
C6 C7 S1 121.2(3) . . ?
C9 C8 C7 105.9(4) . . ?
C9 C8 H8 127.1 . . ?
C7 C8 H8 127.1 . . ?
C11 C9 C10 120.5(4) . . ?
C11 C9 C8 125.5(4) . . ?
C10 C9 C8 114.0(4) . . ?
C9 C10 C11 120.9(4) . 5_666 ?
C9 C10 S1 113.2(3) . . ?
C11 C10 S1 125.9(3) 5_666 . ?
C9 C11 C10 118.6(4) . 5_666 ?
C9 C11 H11 120.7 . . ?
C10 C11 H11 120.7 5_666 . ?
O3 C12 O4 127.7(4) . . ?
O3 C12 C13 113.6(5) . . ?
O4 C12 C13 118.7(4) . . ?
C14 C13 C12 124.0(5) . . ?
C14 C13 S2 116.5(4) . . ?
C12 C13 S2 119.5(4) . . ?
C15 C14 C13 105.8(4) . . ?
C15 C14 H14 127.1 . . ?
C13 C14 H14 127.1 . . ?
C17 C15 C16 122.9(4) . . ?
C17 C15 C14 124.0(5) . . ?
C16 C15 C14 113.1(4) . . ?
C15 C16 C17 120.7(5) . 5_566 ?
C15 C16 S2 115.4(3) . . ?
C17 C16 S2 123.9(4) 5_566 . ?
C15 C17 C16 116.3(5) . 5_566 ?
C15 C17 H17 121.8 . . ?
C16 C17 H17 121.8 5_566 . ?
C3 N1 C1 100.7(3) . . ?
C3 N1 Zn1 129.8(2) . . ?
C1 N1 Zn1 129.5(2) . . ?
C2 N2 C3 109.0(3) . . ?
C2 N2 C4 130.2(3) . . ?
C3 N2 C4 120.0(3) . . ?
C6 O1 Zn1 116.2(3) . . ?
C12 O3 Zn1 115.7(3) . . ?
H1WB O1WA H1WC 109.5 . . ?
H1WE O1WB H1WF 109.5 . . ?
O1WC O1WC H1WH 68.7 6_565 . ?
O1WC O1WC H1WA 70.9 6_565 . ?
H1WH O1WC H1WA 109.5 . . ?
C7 S1 C10 90.8(2) . . ?
C16 S2 C13 89.2(2) . . ?
N1 Zn1 N1 118.64(16) . 6_565 ?
N1 Zn1 O1 111.71(8) . . ?
N1 Zn1 O1 111.71(8) 6_565 . ?
N1 Zn1 O3 110.69(9) . . ?
N1 Zn1 O3 110.69(9) 6_565 . ?
O1 Zn1 O3 89.74(13) . . ?

loop_
_geom_torsion_atom_site_label_1
_geom_torsion_atom_site_label_2
_geom_torsion_atom_site_label_3
_geom_torsion_atom_site_label_4
_geom_torsion
_geom_torsion_site_symmetry_1
_geom_torsion_site_symmetry_2
_geom_torsion_site_symmetry_3
_geom_torsion_site_symmetry_4
_geom_torsion_publ_flag
N1 C1 C2 N2 5.9(4) . . . . ?
N2 C4 C5 C5 59.6(5) . . . 7_558 ?
O1 C6 C7 C8 180.000(1) . . . . ?
O2 C6 C7 C8 0.000(2) . . . . ?
O1 C6 C7 S1 0.000(1) . . . . ?
O2 C6 C7 S1 180.000(1) . . . . ?
C6 C7 C8 C9 180.000(1) . . . . ?
S1 C7 C8 C9 0.000(1) . . . . ?
C7 C8 C9 C11 180.000(1) . . . . ?
C7 C8 C9 C10 0.000(1) . . . . ?
C11 C9 C10 C11 0.000(1) . . . 5_666 ?
C8 C9 C10 C11 180.000(1) . . . 5_666 ?
C11 C9 C10 S1 180.000(1) . . . . ?
C8 C9 C10 S1 0.000(1) . . . . ?
C10 C9 C11 C10 0.000(1) . . . 5_666 ?
C8 C9 C11 C10 180.000(1) . . . 5_666 ?
O3 C12 C13 C14 180.000(1) . . . . ?
O4 C12 C13 C14 0.000(2) . . . . ?
O3 C12 C13 S2 0.000(1) . . . . ?
O4 C12 C13 S2 180.000(1) . . . . ?
C12 C13 C14 C15 180.000(1) . . . . ?
S2 C13 C14 C15 0.000(1) . . . . ?
C13 C14 C15 C17 180.000(1) . . . . ?
C13 C14 C15 C16 0.000(1) . . . . ?
C17 C15 C16 C17 0.000(1) . . . 5_566 ?
C14 C15 C16 C17 180.000(1) . . . 5_566 ?
C17 C15 C16 S2 180.000(1) . . . . ?
C14 C15 C16 S2 0.000(1) . . . . ?
C16 C15 C17 C16 0.000(1) . . . 5_566 ?
C14 C15 C17 C16 180.000(1) . . . 5_566 ?
N2 C3 N1 C1 0.2(4) . . . . ?
N2 C3 N1 Zn1 -179.9(2) . . . . ?
C2 C1 N1 C3 -3.8(4) . . . . ?
C2 C1 N1 Zn1 176.4(2) . . . . ?
C1 C2 N2 C3 -5.6(4) . . . . ?
C1 C2 N2 C4 -174.6(3) . . . . ?
N1 C3 N2 C2 3.3(4) . . . . ?
N1 C3 N2 C4 173.7(3) . . . . ?
C5 C4 N2 C2 59.9(5) . . . . ?
C5 C4 N2 C3 -108.2(4) . . . . ?
O2 C6 O1 Zn1 0.000(1) . . . . ?
C7 C6 O1 Zn1 180.000(1) . . . . ?
O4 C12 O3 Zn1 0.000(1) . . . . ?
C13 C12 O3 Zn1 180.000(1) . . . . ?
C8 C7 S1 C10 0.000(1) . . . . ?
C6 C7 S1 C10 180.000(1) . . . . ?
C9 C10 S1 C7 0.000(1) . . . . ?
C11 C10 S1 C7 180.000(1) 5_666 . . . ?
C15 C16 S2 C13 0.000(1) . . . . ?
C17 C16 S2 C13 180.000(1) 5_566 . . . ?
C14 C13 S2 C16 0.000(1) . . . . ?
C12 C13 S2 C16 180.000(1) . . . . ?

_refine_diff_density_max         0.609
_refine_diff_density_min         -0.479
_refine_diff_density_rms         0.075

_shelx_res_file                  
;

    T.res created by SHELXL-2014/7


TITL t                      C2/m
CELL  0.71073   24.4040   14.1810    9.3040    90.000    99.608    90.000
ZERR        4    0.0070    0.0070    0.0030     0.000     0.008     0.000
LATT 7
SYMM             - X ,              Y ,            - Z
SFAC C  H  N  O  S Zn
UNIT 88 88 16 24 8 4
L.S. 5
ACTA
BOND $H
FMAP 2
PLAN 2
size 0.26 0.24 0.22
CONF
dfix 1.39 0.001 c16 c17_$1
eqiv $1 -x,1-y,1-z
delu 0.005 O3 C12 O4 C12 C15 C16 N2 C2
delu 0.002 N1 C1
delu 0.001 Zn1 O3
omit -1 52
TEMP   18
WGHT    0.090000    1.990000
FVAR       0.18138
C1    1    0.333883    0.322591    1.145194    11.00000    0.04763    0.04947 =
         0.05044    0.00997    0.01902    0.00841
AFIX  43
H1    2    0.368545    0.333374    1.119311    11.00000   -1.20000
AFIX   0
C2    1    0.322680    0.251330    1.224542    11.00000    0.04836    0.04737 =
         0.05135    0.01319    0.01620    0.00640
AFIX  43
H2    2    0.347823    0.207147    1.270595    11.00000   -1.20000
AFIX   0
C3    1    0.247854    0.332290    1.159376    11.00000    0.04798    0.05391 =
         0.04608    0.00351    0.00865   -0.00769
AFIX  43
H3    2    0.210949    0.350977    1.151651    11.00000   -1.20000
AFIX   0
C4    1    0.234008    0.195401    1.308959    11.00000    0.06129    0.04874 =
         0.05006   -0.00428    0.01511   -0.01636
AFIX  23
H4A   2    0.195576    0.215317    1.283807    11.00000   -1.20000
H4B   2    0.236146    0.130150    1.279114    11.00000   -1.20000
AFIX   0
C5    1    0.251123    0.201527    1.469285    11.00000    0.05801    0.04990 =
         0.04926   -0.00231    0.01867   -0.01559
AFIX  23
H5A   2    0.288813    0.177933    1.494444    11.00000   -1.20000
H5B   2    0.227275    0.160612    1.515207    11.00000   -1.20000
AFIX   0
C6    1    0.382234    0.500000    0.881603    10.50000    0.03433    0.05408 =
         0.03913    0.00000    0.01124    0.00000
C7    1    0.415239    0.500000    0.760983    10.50000    0.04619    0.05454 =
         0.03805    0.00000    0.01422    0.00000
C8    1    0.475444    0.500000    0.786123    10.50000    0.04038    0.05083 =
         0.03126    0.00000    0.01061    0.00000
AFIX  43
H8    2    0.498973    0.500000    0.875725    10.50000   -1.20000
AFIX   0
C9    1    0.491399    0.500000    0.643788    10.50000    0.04675    0.05684 =
         0.02777    0.00000    0.00753    0.00000
C10   1    0.446513    0.500000    0.528593    10.50000    0.03559    0.04545 =
         0.03700    0.00000    0.01285    0.00000
C11   1    0.544823    0.500000    0.616855    10.50000    0.03875    0.04860 =
         0.03145    0.00000    0.00425    0.00000
AFIX  43
H11   2    0.574748    0.500000    0.693218    10.50000   -1.20000
AFIX   0
C12   1    0.165999    0.500000    0.879431    10.50000    0.04077    0.05676 =
         0.05386    0.00000   -0.01144    0.00000
C13   1    0.116665    0.500000    0.759376    10.50000    0.04381    0.04645 =
         0.05730    0.00000   -0.00279    0.00000
C14   1    0.059660    0.500000    0.783316    10.50000    0.04194    0.05840 =
         0.05663    0.00000    0.00671    0.00000
AFIX  43
H14   2    0.047247    0.500000    0.872544    10.50000   -1.20000
AFIX   0
C15   1    0.025930    0.500000    0.640125    10.50000    0.05476    0.05348 =
         0.06093    0.00000    0.00671    0.00000
C16   1    0.056894    0.500000    0.529020    10.50000    0.04712    0.04658 =
         0.04851    0.00000   -0.01376    0.00000
C17   1   -0.031073    0.500000    0.615762    10.50000    0.06044    0.05268 =
         0.05845    0.00000   -0.01864    0.00000
AFIX  43
H17   2   -0.051324    0.500000    0.692036    10.50000   -1.20000
AFIX   0
N1    3    0.287341    0.381121    1.103485    11.00000    0.05039    0.05929 =
         0.03860    0.00454    0.00964    0.00353
N2    3    0.268832    0.254232    1.226631    11.00000    0.05278    0.04698 =
         0.04652    0.00175    0.00915   -0.01430
O1    4    0.330353    0.500000    0.837309    10.50000    0.04838    0.04945 =
         0.04285    0.00000    0.01378    0.00000
O2    4    0.406506    0.500000    1.013030    10.50000    0.04395    0.05273 =
         0.04104    0.00000    0.00786    0.00000
O3    4    0.211610    0.500000    0.834729    10.50000    0.04033    0.05435 =
         0.05137    0.00000    0.00221    0.00000
O4    4    0.157823    0.500000    1.010575    10.50000    0.04446    0.05026 =
         0.05875    0.00000    0.01070    0.00000
O1WA  4    1.016822    0.758028    0.713173    10.30000    0.08501    0.05575 =
         0.05767   -0.00373    0.02109    0.00075
AFIX   3
H1WB  2    1.014141    0.765568    0.621633    10.30000   -1.50000
H1WC  2    1.025031    0.810318    0.756063    10.30000   -1.50000
AFIX   0
O1WB  4    0.929381    0.734766    0.779871    10.30000    0.07145    0.05172 =
         0.05765   -0.00017    0.01003   -0.00922
AFIX   3
H1WE  2    0.906531    0.715156    0.706941    10.30000   -1.50000
H1WF  2    0.932021    0.694326    0.848111    10.30000   -1.50000
AFIX   0
O1WC  4    0.159370    0.542228    0.331310    10.40000    0.07274    0.05491 =
         0.06889   -0.00298    0.01677   -0.00017
AFIX   3
H1WH  2    0.176520    0.520498    0.411490    10.40000   -1.20000
H1WA  2    0.174910    0.522648    0.261690    10.40000   -1.50000
AFIX   0
S1    5    0.383896    0.500000    0.584923    10.50000    0.03646    0.04781 =
         0.03954    0.00000    0.00995    0.00000
S2    5    0.126709    0.500000    0.582860    10.50000    0.05183    0.05026 =
         0.05761    0.00000   -0.01350    0.00000
ZN1   6    0.281399    0.500000    0.994479    10.50000    0.03616    0.05042 =
         0.03566    0.00000    0.00534    0.00000

HKLF 4

REM  t                      C2/m
REM R1 =  0.0465 for    2647 Fo > 4sig(Fo)  and  0.0543 for all    3255 data
REM    205 parameters refined using      8 restraints

END

WGHT      0.0577      2.9547

REM Highest difference peak  0.609,  deepest hole -0.479,  1-sigma level  0.075
Q1    1   0.0266  0.5000  1.0005  10.50000  0.05    0.42
Q2    1   0.2484  0.0000  1.4139  10.50000  0.05    0.38
;
_shelx_res_checksum              15369

_shelx_hkl_file                  
;
  -1  -1   0   87.49    2.65
   1   1   0   90.72    2.48
  -2  -2   0  651.09    7.28
   2   2   0  651.29    6.95
  -3  -3   0  111.26    3.97
   3   3   0  111.75    3.81
  -4  -4   0   25.27    2.32
   4   4   0   25.12    2.15
  -5  -5   0   33.57    2.81
   5   5   0   33.12    2.48
  -6  -6   0   45.10    3.48
   6   6   0   45.79    3.31
  -7  -7   0  162.64    8.94
   7   7   0  160.90    8.44
  -8  -8   0    0.42    0.99
  -8  -8   0    0.62    1.16
   8   8   0    0.22    0.50
  -9  -9   0  224.36   14.23
  -9  -9   0  223.42   14.23
   9   9   0  221.14   13.57
 -10 -10   0    6.33    1.66
 -10 -10   0    5.83    1.32
  10  10   0    6.43    1.16
 -11 -11   0    0.30    1.66
 -11 -11   0    0.65    1.49
 -12 -12   0   25.94    2.32
 -13 -13   0    0.90    1.99
 -14 -14   0    2.49    1.99
 -15 -15   0    1.59    2.15
 -14 -16   0    0.56    2.32
 -13 -15   0    0.64    2.15
 -12 -14   0   48.37    2.98
 -11 -13   0    0.02    1.82
 -10 -12   0    1.34    1.66
 -10 -12   0    2.14    1.49
  -9 -11   0   33.15    3.81
  -9 -11   0   28.48    3.31
   8  10   0   29.78    1.82
  -8 -10   0   30.73    2.15
   6   8   0    3.55    0.83
  -6  -8   0    3.35    1.16
   5   7   0   10.99    1.49
  -5  -7   0   11.34    1.66
   4   6   0   23.24    2.48
  -4  -6   0   23.44    2.65
   3   5   0   17.36    2.81
  -3  -5   0   16.47    2.98
   2   4   0   53.50   11.26
   1   3   0   40.81    8.61
   0   2   0 3848.33  133.41
   0   2   0 3834.87  138.21
   1  -1   0   84.41    1.49
  -2   0   0 1878.70   28.47
  -2   0   0 1881.53   28.14
   2   0   0 1878.55   27.15
  -3  -1   0   56.56    9.27
  -3  -1   0   59.09    9.43
   3   1   0   57.41    8.94
  -4  -2   0  906.32   74.15
   4   2   0  922.45   70.68
  -5  -3   0   32.19    3.64
   5   3   0   33.24    3.48
  -6  -4   0    4.07    0.66
   6   4   0    3.97    0.66
  -7  -5   0  140.34    9.10
   7   5   0  141.08    8.77
  -8  -6   0  106.91    6.95
  -8  -6   0  105.37    6.95
   8   6   0  105.97    6.62
  -9  -7   0  170.44   12.08
  -9  -7   0  164.53   12.08
 -10  -8   0   86.62    3.48
 -10  -8   0   84.88    2.98
 -11  -9   0    9.12    2.48
 -11  -9   0    8.27    1.99
  11   9   0    8.77    1.82
 -12 -10   0  111.51    6.12
 -12 -10   0  112.06    5.79
 -13 -11   0    6.85    1.82
 -14 -12   0    0.39    1.82
 -15 -13   0    6.01    1.99
 -16 -14   0    0.59    1.99
 -17 -15   0    0.49    2.32
 -12 -16   0    9.93    2.48
 -11 -15   0    1.52    2.32
 -10 -14   0    4.19    1.99
  -9 -13   0   21.06    2.48
  -9 -13   0   22.06    2.32
  -8 -12   0    7.42    1.66
   7  11   0   38.63    2.65
  -7 -11   0   41.71    3.14
   6  10   0   28.87    1.99
  -6 -10   0   30.76    2.32
   4   8   0    6.20    1.49
  -4  -8   0    7.49    1.99
   3   7   0   16.25    1.66
  -3  -7   0   15.80    1.99
   2   6   0   66.55    7.61
   1   5   0   38.15    1.32
   0   4   012385.54 1068.10
   0   4   012294.27 1102.04
  -1   3   0   43.49    8.94
   1  -3   0   38.13    8.61
  -2   2   0  652.28    7.61
   2  -2   0  652.98    7.28
  -3   1   0   57.95    9.93
  -3   1   0   61.43    9.77
  -4   0   0  685.34   71.67
  -4   0   0  684.90   70.84
   4   0   0  688.32   68.36
  -5  -1   0  154.01   13.74
  -5  -1   0  155.10   13.74
   5   1   0  153.91   13.24
  -6  -2   0   25.34    0.33
  -6  -2   0   25.09    0.50
   6   2   0   25.19    0.50
  -7  -3   0  343.97   21.68
   7   3   0  333.55   20.69
  -8  -4   0   29.67    2.15
   8   4   0   29.77    2.15
  -9  -5   0  272.02   17.88
   9   5   0  274.75   17.05
 -10  -6   0    0.60    0.83
 -10  -6   0    0.90    0.66
  10   6   0    1.00    0.50
 -11  -7   0    1.16    1.16
 -11  -7   0    1.90    0.99
  11   7   0    1.26    0.83
 -12  -8   0  269.23   14.73
  12   8   0  273.30   14.23
 -13  -9   0    8.28    1.66
 -13  -9   0    9.22    1.99
  13   9   0    9.27    1.66
 -14 -10   0    5.97    1.99
 -15 -11   0   14.60    1.99
 -16 -12   0    1.46    1.82
 -17 -13   0   -0.10    1.99
 -18 -14   0    9.55    2.48
 -11 -17   0    0.49    2.48
 -10 -16   0    0.83    2.32
  -9 -15   0   19.01    2.65
  -8 -14   0    8.32    1.99
  -7 -13   0    9.24    1.99
  -6 -12   0    1.05    1.49
   5  11   0    7.61    1.49
  -5 -11   0    8.21    1.99
   4  10   0    1.40    0.99
  -4 -10   0    1.05    1.32
   3   9   0   12.21    1.82
  -3  -9   0   15.00    2.48
   2   8   0    1.69    0.50
  -2  -8   0    2.53    1.16
   1   7   0   47.78    4.97
   0   6   0 3632.41  102.79
  -1   5   0   38.50    1.32
   1  -5   0   37.65    1.32
  -2   4   0   53.85   11.92
   2  -4   0   55.04   11.59
  -3   3   0  111.36    4.14
   3  -3   0  112.80    3.97
  -4   2   0  921.36   72.83
  -4   2   0  903.93   73.82
  -5   1   0  149.15   12.91
  -5   1   0  149.89   13.08
   5  -1   0  154.81   12.58
  -6   0   0  240.59   21.85
  -6   0   0  239.74   22.18
   6   0   0  243.02   21.19
  -7  -1   0  644.19   34.43
  -7  -1   0  648.31   34.92
   7   1   0  644.89   33.27
  -8  -2   0    0.61    0.33
   8   2   0    0.46    0.50
   9   3   0  484.50   33.60
 -10  -4   0    2.75    0.66
 -10  -4   0    2.75    0.50
  10   4   0    2.75    0.66
 -11  -5   0    1.85    0.66
 -11  -5   0    1.61    0.66
  11   5   0    1.26    0.33
 -12  -6   0  144.26    7.28
  12   6   0  146.35    7.12
 -13  -7   0    6.94    0.99
  13   7   0    6.50    0.99
 -14  -8   0   43.18    2.65
  14   8   0   41.88    2.81
 -15  -9   0   15.94    1.66
 -16 -10   0    6.26    1.99
 -17 -11   0    0.43    1.66
 -18 -12   0   34.43    2.98
 -19 -13   0    5.17    2.15
 -20 -14   0    2.29    2.15
  -9 -17   0    5.48    2.65
  -7 -15   0   22.77    2.48
  -6 -14   0    6.79    1.82
  -5 -13   0    1.79    1.82
  -4 -12   0    2.71    1.66
  -3 -11   0   13.90    1.82
  -2 -10   0   13.66    2.48
  -1   7   0   48.72    5.13
   1  -7   0   45.30    4.80
  -2   6   0   43.96    2.81
  -3   5   0   17.76    3.31
   3  -5   0   18.15    3.14
  -4   4   0   25.02    2.15
   4  -4   0   25.02    2.32
  -5   3   0   32.14    3.97
  -5   3   0   35.87    3.81
   5  -3   0   33.68    3.81
  -6   2   0   24.94    0.50
  -6   2   0   25.34    0.50
   6  -2   0   24.89    0.33
  -7   1   0  626.81   34.10
  -7   1   0  655.76   33.60
   7  -1   0  643.84   32.61
  -8   0   0  239.60   20.86
  -8   0   0  254.30   21.19
   8   0   0  246.06   20.19
  -9  -1   0  831.63   47.84
   9   1   0  820.86   45.68
 -10  -2   0  154.32    8.11
 -10  -2   0  153.13    7.94
  10   2   0  144.98    7.78
 -11  -3   0    8.91    0.50
 -11  -3   0    8.76    0.83
  11   3   0    8.36    0.33
 -12  -4   0  132.87   13.24
 -12  -4   0  134.76   13.24
  12   4   0  136.54   12.74
 -13  -5   0   34.85    3.48
 -13  -5   0   32.86    2.98
  13   5   0   33.46    3.14
 -14  -6   0    2.51    0.83
  14   6   0    2.41    0.99
 -15  -7   0    9.21    1.16
  15   7   0    9.16    1.32
 -16  -8   0   36.20    3.81
  16   8   0   37.19    3.48
 -17  -9   0    0.59    1.66
 -18 -10   0   44.45    4.30
 -19 -11   0   11.54    1.99
 -20 -12   0   22.90    2.32
 -21 -13   0    0.26    1.99
  -6 -16   0    0.91    2.32
  -5 -15   0    1.82    2.15
  -4 -14   0    4.48    1.99
  -3 -13   0    0.80    1.32
  -3 -13   0    0.60    1.99
  -2 -12   0    3.65    1.82
  -2 -12   0    3.35    1.16
  -1 -11   0   14.73    1.49
  -1 -11   0   15.58    2.15
   0 -10   0  954.29   48.17
   1  -9   0   11.13    1.16
  -2   8   0    2.38    0.99
   2  -8   0    1.89    0.99
  -3   7   0   16.70    1.99
   3  -7   0   15.50    1.82
  -4   6   0   20.56    2.32
   4  -6   0   23.89    2.48
  -5   5   0   28.36    1.66
  -6   4   0    3.67    0.66
  -6   4   0    3.47    0.83
   6  -4   0    3.87    0.83
  -7   3   0  304.35   14.07
  -8   2   0    0.80    0.50
  -8   2   0    0.95    0.66
  -9   1   0  678.79   14.23
 -10   0   0   32.90    1.66
 -10   0   0   32.41    1.66
 -11  -1   0    3.20    0.99
 -11  -1   0    3.10    0.83
  11   1   0    3.30    1.16
 -12  -2   0  781.31   44.69
 -12  -2   0  788.61   45.19
  12   2   0  790.60   43.20
 -13  -3   0    0.17    0.83
 -13  -3   0    0.36    0.50
  13   3   0    0.46    0.83
 -14  -4   0    1.78    0.66
 -14  -4   0    1.44    0.99
  14   4   0    1.29    0.83
 -15  -5   0   91.20    5.13
 -15  -5   0   97.90    4.97
  15   5   0   96.91    4.97
 -16  -6   0   19.05    2.15
 -16  -6   0   21.68    1.82
  16   6   0   21.24    2.15
 -17  -7   0    1.66    1.32
  17   7   0    1.36    0.99
 -18  -8   0  119.89    6.95
 -19  -9   0   13.04    1.99
 -20 -10   0   10.98    2.32
 -21 -11   0    6.19    2.15
 -22 -12   0    0.33    1.99
  -5 -17   0    3.21    2.65
  -4 -16   0    0.87    2.48
  -3 -15   0    0.68    2.32
  -2 -14   0    1.84    2.15
  -1 -13   0    2.38    1.32
  -1 -13   0    2.28    1.99
   0 -12   0  694.74   36.58
   0 -12   0  714.16   38.57
   1 -11   0   15.08    1.66
  -2  10   0   12.76    1.99
   2 -10   0   12.61    1.99
  -3   9   0   13.80    2.48
   3  -9   0   14.55    2.32
  -4   8   0    8.04    2.15
   4  -8   0    8.49    2.15
  -5   7   0   11.89    1.82
   5  -7   0   11.09    1.82
  -6   6   0   46.24    3.64
   6  -6   0   45.35    3.64
  -7   5   0  123.06    5.63
  -7   5   0  127.33    5.79
  -8   4   0   29.87    2.32
   8  -4   0   28.53    2.15
 -10   2   0  148.81    7.94
 -10   2   0  151.39    8.11
  10  -2   0  152.73    7.94
 -11   1   0    2.60    0.99
 -11   1   0    3.20    0.99
  11  -1   0    3.59    1.16
 -12   0   0   99.21   14.23
 -12   0   0  100.55   14.07
  12   0   0  100.75   13.74
 -13  -1   0   27.47    2.65
 -13  -1   0   28.07    2.81
  13   1   0   28.96    2.81
 -14  -2   0  106.03    7.45
 -14  -2   0  105.04    7.28
  14   2   0  105.49    7.28
 -15  -3   0    9.45    1.82
 -15  -3   0    8.51    1.66
  15   3   0    9.55    1.99
 -16  -4   0   27.05    2.98
 -16  -4   0   26.51    2.48
  16   4   0   26.36    2.81
 -17  -5   0   18.47    2.65
 -17  -5   0   17.72    2.15
  17   5   0   16.33    2.48
 -18  -6   0  105.88    6.79
  18   6   0  102.71    6.46
 -19  -7   0   38.25    2.15
  19   7   0   38.40    1.99
 -20  -8   0   78.65    4.30
 -21  -9   0    2.73    1.99
 -22 -10   0    3.91    1.99
 -23 -11   0    4.53    2.15
  -4 -18   0    2.49    2.65
  -3 -17   0    2.05    2.65
  -2 -16   0    6.02    2.65
  -1 -15   0    0.95    2.32
   0 -14   0  142.84    6.46
   0 -14   0  142.55    7.12
   1 -13   0    2.13    1.32
   1 -13   0    2.93    1.99
   2 -12   0    3.45    1.49
  -3  11   0   13.65    1.49
   3 -11   0   13.55    1.49
  -4  10   0    1.10    1.16
   4 -10   0    1.15    0.99
  -5   9   0   55.63    3.81
   5  -9   0   55.53    3.64
  -6   8   0    3.85    1.16
   6  -8   0    3.80    1.16
  -7   7   0  165.92    9.27
   7  -7   0  160.65    8.94
  -8   6   0  106.17    6.95
  -8   6   0  105.52    7.12
   8  -6   0  106.27    6.79
  -9   5   0  275.35   17.05
  -9   5   0  266.36   17.21
   9  -5   0  267.10   16.55
 -10   4   0    2.35    0.83
 -10   4   0    2.75    0.66
  10  -4   0    2.75    0.66
 -11   3   0    8.51    0.83
 -11   3   0    8.36    0.66
  11  -3   0    8.36    0.83
 -12   2   0  782.60   43.86
 -12   2   0  771.98   43.20
  12  -2   0  785.58   41.88
 -13   1   0   27.12    2.81
 -13   1   0   27.77    2.81
  13  -1   0   28.96    2.81
 -14   0   0    3.24    0.83
 -14   0   0    2.89    0.83
  14   0   0    3.39    0.99
 -15  -1   0   52.07    4.14
 -15  -1   0   52.47    4.14
  15   1   0   53.12    4.14
 -16  -2   0  123.19    8.61
 -16  -2   0  125.02    8.44
  16   2   0  125.07    8.44
 -17  -3   0    1.91    1.16
 -17  -3   0    2.01    0.99
  17   3   0    1.66    1.32
 -18  -4   0  201.05   12.08
 -18  -4   0  202.49   12.25
  18   4   0  202.54   11.92
 -19  -5   0    9.68    1.32
  19   5   0    8.74    1.32
 -20  -6   0   16.60    2.65
  20   6   0   18.29    2.48
 -21  -7   0   17.91    2.48
 -22  -8   0    1.10    1.82
 -23  -9   0    6.10    2.15
 -24 -10   0   10.00    2.15
 -25 -11   0    1.53    2.32
  -2 -18   0    0.14    2.65
  -1 -17   0    2.60    2.81
   0 -16   0  201.01    9.27
   1 -15   0    1.09    2.32
   2 -14   0    1.14    2.15
   2 -14   0    2.24    1.49
   3 -13   0    0.70    1.49
  -4  12   0    3.11    1.49
   4 -12   0    2.56    1.32
  -5  11   0    8.16    1.82
   5 -11   0    8.11    1.82
  -6  10   0   29.62    2.32
   6 -10   0   29.72    2.32
  -7   9   0  163.65   11.09
   7  -9   0  165.88   10.92
  -8   8   0    0.62    1.16
   8  -8   0    0.77    1.16
  -9   7   0  168.50   10.92
  -9   7   0  155.54   11.09
   9  -7   0  162.74   10.59
 -10   6   0    0.25    0.99
 -10   6   0    1.14    0.83
  10  -6   0    0.65    0.99
 -11   5   0    1.90    0.83
 -11   5   0    1.41    0.99
  11  -5   0    2.00    0.99
 -12   4   0  130.49   12.25
 -12   4   0  130.93   12.58
 -13   3   0    0.12    0.66
 -13   3   0    0.22    0.83
  13  -3   0    0.26    0.99
 -14   2   0  101.02    6.95
 -14   2   0  103.95    7.12
  14  -2   0  107.47    7.12
 -15   1   0   51.63    3.97
 -15   1   0   51.38    3.97
  15  -1   0   51.92    3.97
 -16   0   0   75.44    6.29
 -16   0   0   74.30    6.29
  16   0   0   75.04    6.12
 -17  -1   0    1.83    1.16
 -17  -1   0    1.38    0.99
  17   1   0    0.79    1.16
 -18  -2   0  225.99   14.07
 -18  -2   0  230.51   14.23
  18   2   0  229.02   13.74
 -19  -3   0   18.78    1.49
 -19  -3   0   17.94    1.16
  19   3   0   18.68    1.49
 -20  -4   0  132.92    7.45
  20   4   0  134.66    7.12
 -21  -5   0    6.46    1.82
  21   5   0    6.26    1.82
 -22  -6   0   16.54    1.66
  22   6   0   16.09    1.49
 -23  -7   0   18.21    2.65
 -24  -8   0    1.39    1.82
 -25  -9   0    3.79    2.15
 -26 -10   0    0.53    2.15
   0 -18   0   41.96    3.64
   1 -17   0    1.61    2.65
   2 -16   0    5.67    2.81
   3 -15   0    0.48    1.49
   3 -15   0    0.13    2.32
   4 -14   0    4.28    1.32
  -5  13   0    1.84    1.66
   5 -13   0    2.54    1.49
  -6  12   0    1.10    1.49
   6 -12   0    0.75    1.32
  -7  11   0   39.42    2.98
   7 -11   0   39.23    2.98
  -8  10   0   29.73    2.15
   8 -10   0   29.88    2.15
  -9   9   0  230.42   15.39
   9  -9   0  224.86   14.90
 -10   8   0   87.56    3.48
  10  -8   0   85.88    3.48
 -11   7   0    1.41    1.16
 -11   7   0    1.41    1.32
  11  -7   0    1.31    1.32
 -12   6   0  143.32    7.61
 -12   6   0  145.55    7.45
  12  -6   0  146.60    7.45
 -13   5   0   33.36    3.31
 -13   5   0   33.51    2.98
  13  -5   0   29.58    2.98
 -14   4   0    1.19    0.99
 -14   4   0    1.39    0.66
  14  -4   0    1.68    0.99
 -15   3   0    8.11    1.66
 -15   3   0    9.35    1.99
  15  -3   0    9.80    2.15
 -16   2   0  121.15    8.44
 -16   2   0  126.07    8.61
  16  -2   0  125.77    8.44
 -17   1   0    0.69    1.16
 -17   1   0    1.23    0.99
  17  -1   0    0.69    1.32
 -18   0   0  303.49   18.21
 -18   0   0  299.81   18.21
  18   0   0  304.78   17.71
 -19  -1   0   37.23    2.32
 -19  -1   0   38.77    2.65
  19   1   0   39.91    2.65
 -20  -2   0   41.32    3.81
 -20  -2   0   42.36    3.97
  20   2   0   43.60    3.97
 -21  -3   0    5.49    1.82
  21   3   0    5.10    1.82
 -22  -4   0    1.83    1.66
  22   4   0    1.29    1.66
 -23  -5   0   14.05    2.32
  23   5   0   14.15    2.48
 -24  -6   0   37.13    2.98
 -25  -7   0    6.96    1.99
 -26  -8   0    0.14    1.99
 -27  -9   0    9.25    2.48
   2 -18   0    1.04    2.98
   3 -17   0    3.00    2.98
   4 -16   0    0.92    2.65
   5 -15   0    3.06    1.82
  -6  14   0    6.54    1.82
   6 -14   0    6.39    1.66
  -7  13   0    9.04    1.99
   7 -13   0    8.84    1.82
  -8  12   0    7.38    1.66
   8 -12   0    7.18    1.49
  -9  11   0   28.28    3.14
   9 -11   0   29.42    3.14
 -10  10   0    6.58    1.66
  10 -10   0    6.28    1.49
 -11   9   0    9.56    2.48
  11  -9   0    9.17    2.48
 -12   8   0  269.33   15.39
 -12   8   0  273.16   15.06
  12  -8   0  274.20   14.73
 -13   7   0    7.09    1.32
 -13   7   0    7.44    1.66
  13  -7   0    6.69    1.49
 -14   6   0    1.57    1.32
 -14   6   0    2.61    1.16
  14  -6   0    1.62    0.99
 -15   5   0   95.42    5.30
 -15   5   0   96.06    5.46
 -16   4   0   25.52    2.65
 -16   4   0   24.82    2.48
  16  -4   0   23.88    2.65
 -17   3   0    1.66    1.32
 -17   3   0    1.17    0.99
  17  -3   0    0.92    1.32
 -18   2   0  224.85   13.57
 -18   2   0  226.93   13.90
  18  -2   0  226.79   13.41
 -19   1   0   38.52    2.65
 -19   1   0   39.32    2.65
  19  -1   0   39.27    2.81
 -20   0   0  124.19    6.62
 -20   0   0  124.64    6.62
  20   0   0  126.48    6.62
 -21  -1   0   25.15    3.14
 -21  -1   0   26.49    3.48
  21   1   0   26.34    3.64
 -22  -2   0    5.36    1.16
  22   2   0    6.01    1.49
 -23  -3   0   17.97    2.65
  23   3   0   18.51    2.81
 -24  -4   0    3.37    1.82
  24   4   0    2.97    1.82
 -25  -5   0    4.77    1.99
  25   5   0    4.62    1.99
 -26  -6   0    3.56    1.99
 -27  -7   0   18.68    2.48
 -28  -8   0   -0.64    2.15
   4 -18   0    2.44    2.98
   5 -17   0    3.41    2.98
   7 -15   0   22.08    1.99
  -8  14   0    7.53    1.82
   8 -14   0    7.77    1.66
  -9  13   0   21.51    2.48
   9 -13   0   22.11    2.32
 -10  12   0    1.39    1.49
  10 -12   0    1.94    1.49
 -11  11   0    0.80    1.66
  11 -11   0    1.15    1.49
 -12  10   0  112.90    5.96
  12 -10   0  110.12    5.96
 -13   9   0    9.12    1.99
  13  -9   0    9.27    2.15
 -14   8   0   41.64    3.31
 -14   8   0   42.43    3.14
  14  -8   0   43.87    3.31
 -15   7   0    9.11    1.49
 -15   7   0    9.21    1.82
  15  -7   0   10.45    1.99
 -16   6   0   21.63    2.48
 -16   6   0   21.44    2.65
 -17   5   0   16.73    2.65
 -17   5   0   16.03    2.32
 -18   4   0  193.06   11.26
 -18   4   0  198.67   11.59
  18  -4   0  202.00   11.09
 -19   3   0   18.24    1.32
 -19   3   0   18.54    1.82
  19  -3   0   18.54    1.82
 -20   2   0   44.00    4.30
 -20   2   0   44.00    4.14
  20  -2   0   42.31    4.14
 -21   1   0   26.09    3.48
 -21   1   0   26.94    3.48
  21  -1   0   26.19    3.64
 -22   0   0   15.06    1.49
 -22   0   0   15.61    1.49
  22   0   0   15.26    1.66
 -23  -1   0   38.48    3.81
  23   1   0   37.49    3.97
 -24  -2   0   22.95    2.32
  24   2   0   23.15    2.48
 -25  -3   0   13.61    1.99
  25   3   0   13.81    2.15
 -26  -4   0    0.31    1.82
  26   4   0   -0.29    1.82
 -27  -5   0   14.97    2.65
 -28  -6   0   -0.04    1.99
 -29  -7   0    6.21    2.48
   6 -18   0    0.55    2.98
   7 -17   0    5.21    3.14
   8 -16   0    1.91    1.66
  -9  15   0   18.66    2.48
   9 -15   0   19.36    2.32
 -10  14   0    4.74    1.99
  10 -14   0    4.54    1.66
 -11  13   0    0.62    1.82
  11 -13   0    0.52    1.82
 -12  12   0   27.82    2.48
  12 -12   0   27.48    2.65
 -13  11   0    7.40    1.82
  13 -11   0    7.25    1.82
 -14  10   0    6.12    1.99
  14 -10   0    6.42    2.15
 -15   9   0   16.14    1.66
  15  -9   0   16.44    1.82
 -16   8   0   38.93    3.97
 -16   8   0   35.75    4.14
  16  -8   0   35.75    3.97
 -17   7   0    1.61    1.66
 -17   7   0    1.61    1.16
  17  -7   0    1.81    1.49
 -18   6   0  104.05    6.95
 -18   6   0  103.00    6.62
  18  -6   0  105.39    6.62
 -19   5   0    8.64    1.66
 -19   5   0    8.89    1.16
  19  -5   0   10.03    1.66
 -20   4   0  133.52    7.12
 -20   4   0  129.45    6.79
  20  -4   0  132.97    6.95
 -21   3   0    4.75    1.66
 -21   3   0    5.49    1.99
  21  -3   0    5.19    1.99
 -22   2   0    5.26    1.49
 -22   2   0    5.36    1.16
  22  -2   0    5.26    1.49
 -23   1   0   38.14    3.81
 -23   1   0   37.64    3.81
  23  -1   0   37.74    3.97
 -24   0   0   43.97    4.30
  24   0   0   41.74    4.30
 -25  -1   0   15.32    2.32
  25   1   0   15.41    2.48
 -26  -2   0    0.77    1.66
  26   2   0    0.33    1.82
 -27  -3   0   33.65    3.14
  27   3   0   35.58    3.48
 -28  -4   0    0.66    1.99
  28   4   0    0.91    2.15
 -29  -5   0    7.19    2.48
 -10  16   0    0.92    2.15
  10 -16   0    0.83    1.99
 -11  15   0    0.92    2.15
  11 -15   0    0.97    1.99
 -12  14   0   49.81    3.14
  12 -14   0   48.47    2.98
 -13  13   0    1.40    1.99
  13 -13   0    1.25    1.99
 -14  12   0   -0.11    1.66
  14 -12   0    0.39    1.99
 -15  11   0   15.40    1.99
  15 -11   0   15.10    2.15
 -16  10   0    6.71    1.99
  16 -10   0    6.71    2.32
 -17   9   0   -0.05    1.49
  17  -9   0    0.39    1.82
 -18   8   0  119.65    7.28
 -18   8   0  119.35    6.79
  18  -8   0  120.34    6.79
 -19   7   0   39.79    2.32
 -19   7   0   39.35    2.81
  19  -7   0   38.85    2.65
 -20   6   0   17.05    2.48
 -20   6   0   18.44    2.98
  20  -6   0   17.30    2.81
 -21   5   0    5.02    1.49
 -21   5   0    5.52    1.99
  21  -5   0    6.46    2.15
 -22   4   0    0.49    1.49
 -22   4   0    1.29    1.82
  22  -4   0    1.49    1.82
 -23   3   0   18.26    2.81
 -23   3   0   17.32    2.48
  23  -3   0   18.21    2.81
 -24   2   0   23.75    2.48
 -24   2   0   24.44    2.48
  24  -2   0   22.70    2.65
 -25   1   0   14.57    2.15
  25  -1   0   14.57    2.48
 -26   0   0    9.42    1.99
  26   0   0    8.93    2.15
 -27  -1   0   27.16    3.14
  27   1   0   27.11    3.31
 -28  -2   0    0.71    1.99
  28   2   0    0.31    1.99
 -29  -3   0    8.67    2.48
  29   3   0    9.31    2.81
 -30  -4   0   13.96    2.65
 -11  17   0   -0.01    2.32
  11 -17   0   -0.05    2.15
 -12  16   0   11.07    2.65
  12 -16   0   10.72    2.48
 -13  15   0    0.24    1.99
  13 -15   0    0.24    1.99
 -14  14   0    3.48    2.15
  14 -14   0    3.18    2.15
 -15  13   0    6.21    2.15
  15 -13   0    5.81    2.15
 -16  12   0    1.56    1.82
  16 -12   0    0.92    1.99
 -17  11   0    0.82    1.66
  17 -11   0    0.72    1.99
 -18  10   0   43.51    3.97
  18 -10   0   42.71    4.14
 -19   9   0   12.35    1.82
  19  -9   0   12.45    1.99
 -20   8   0   78.11    4.63
 -20   8   0   78.50    4.14
  20  -8   0   78.55    4.30
 -21   7   0   17.31    2.32
 -21   7   0   18.36    2.81
  21  -7   0   19.45    2.81
 -22   6   0   15.79    1.49
 -22   6   0   16.88    2.15
  22  -6   0   16.29    1.99
 -23   5   0   13.21    2.15
 -23   5   0   13.31    2.48
  23  -5   0   14.70    2.65
 -24   4   0    2.42    1.82
 -24   4   0    2.27    1.49
  24  -4   0    2.12    1.82
 -25   3   0   14.31    2.15
  25  -3   0   14.36    2.48
 -26   2   0    0.03    1.66
  26  -2   0    0.28    1.99
 -27   1   0   26.66    2.98
  27  -1   0   26.66    3.31
 -28   0   0    0.08    1.82
  28   0   0   -0.27    1.99
 -29  -1   0    7.00    2.32
  29   1   0    8.00    2.65
 -30  -2   0   22.28    3.14
  30   2   0   24.01    3.31
  31   3   0    7.80    2.65
 -14  16   0    0.41    2.32
  14 -16   0    0.16    2.15
 -15  15   0    2.09    2.15
  15 -15   0    2.39    2.15
 -16  14   0    0.88    2.15
  16 -14   0    1.38    2.32
 -17  13   0    0.79    2.15
  17 -13   0    0.54    2.15
 -18  12   0   34.93    2.98
  18 -12   0   33.39    2.98
 -19  11   0   12.64    1.99
  19 -11   0   11.35    2.15
 -20  10   0   12.77    2.65
  20 -10   0   11.58    2.81
 -21   9   0    2.98    1.82
  21  -9   0    3.57    2.32
 -22   8   0    0.11    2.15
 -22   8   0    0.56    1.49
  22  -8   0    0.16    1.82
 -23   7   0   19.50    3.14
 -23   7   0   17.36    2.48
  23  -7   0   17.41    2.81
 -24   6   0   35.09    2.65
 -24   6   0   37.87    3.31
  24  -6   0   38.52    3.31
 -25   5   0    3.53    1.66
 -25   5   0    3.97    2.15
  25  -5   0    4.12    1.99
 -26   4   0   -0.39    1.49
  26  -4   0   -0.04    1.99
 -27   3   0   35.04    3.31
  27  -3   0   35.19    3.64
 -28   2   0    0.86    1.82
  28  -2   0   -0.13    1.99
 -29   1   0    8.00    2.48
  29  -1   0    8.00    2.81
 -30   0   0   20.77    2.98
  30   0   0   21.46    3.31
 -31  -1   0    6.67    2.32
  31   1   0    6.62    2.48
 -17  15   0    0.15    2.32
  17 -15   0   -0.15    2.15
 -18  14   0    9.30    2.32
  18 -14   0    9.45    2.65
 -19  13   0    5.27    2.15
  19 -13   0    4.82    2.32
 -20  12   0   24.78    2.48
  20 -12   0   23.49    2.65
 -21  11   0    6.38    1.99
  21 -11   0    6.33    2.32
 -22  10   0    4.25    1.82
  22 -10   0    3.46    2.15
 -23   9   0    7.44    2.15
  23  -9   0    6.44    2.32
 -24   8   0    1.94    1.66
  24  -8   0    1.29    1.99
 -25   7   0    6.86    2.48
 -25   7   0    5.97    1.66
  25  -7   0    7.16    2.15
 -26   6   0    2.57    1.66
 -26   6   0    3.66    2.32
  26  -6   0    3.46    2.15
 -27   5   0   14.18    2.48
  27  -5   0   14.13    2.65
 -28   4   0    0.51    1.82
  28  -4   0    1.90    2.32
 -29   3   0    9.06    2.48
  29  -3   0    9.11    2.98
 -30   2   0   23.17    2.98
  30  -2   0   23.12    3.48
 -31   1   0    5.98    2.32
  31  -1   0    7.86    2.81
 -20  14   0    3.44    2.32
  20 -14   0    2.44    2.48
 -21  13   0    1.70    2.32
  21 -13   0    1.05    2.48
 -22  12   0    1.28    2.15
  22 -12   0    0.48    2.32
 -23  11   0    5.18    2.15
  23 -11   0    5.03    2.48
 -24  10   0   10.79    2.15
  24 -10   0   10.15    2.48
 -25   9   0    3.65    1.99
  25  -9   0    3.94    2.32
 -26   8   0   -0.16    1.66
  26  -8   0    0.84    2.15
 -27   7   0   17.78    2.15
  27  -7   0   19.22    2.65
 -28   6   0   -0.39    1.82
  28  -6   0    0.55    2.15
 -29   5   0    7.43    2.32
  29  -5   0    6.74    2.81
 -30   4   0   13.51    2.65
  30  -4   0   14.36    3.14
 -31   3   0    8.69    2.48
  31  -3   0    8.04    2.65
 -24  12   0    2.39    2.15
 -25  11   0    1.68    1.99
  25 -11   0    0.79    2.32
 -26  10   0    0.98    1.99
  26 -10   0    1.13    2.32
 -27   9   0    7.71    2.15
  27  -9   0    9.25    2.65
 -28   8   0   -0.49    1.66
  28  -8   0    0.41    2.32
 -29   7   0    3.88    2.15
  29  -7   0    6.06    2.65
  30  -4   1    0.44    2.48
 -30   4  -1    1.73    2.15
  29  -5   1    0.03    2.15
 -29   5  -1    0.33    1.99
  28  -6   1    1.25    2.32
 -28   6  -1    1.60    1.82
 -28   6  -1    2.39    2.48
  27  -7   1    0.17    2.15
 -27   7  -1   -0.18    2.32
 -27   7  -1   -0.48    1.66
  26  -8   1    2.40    2.15
 -26   8  -1    3.50    2.65
 -26   8  -1    3.50    1.82
  25  -9   1   26.33    3.48
 -25   9  -1   26.93    3.14
 -25   9  -1   27.62    3.81
  24 -10   1    0.66    2.32
 -24  10  -1   -0.69    2.48
  23 -11   1   20.49    2.65
  22 -12   1    0.79    2.48
  21 -13   1    1.46    2.48
  30  -2   1    3.29    2.48
 -30   2  -1    4.83    2.15
  29  -3   1    1.26    2.32
 -29   3  -1    1.11    1.82
  28  -4   1    1.00    2.15
 -28   4  -1    2.39    1.99
  27  -5   1    1.09    2.15
 -27   5  -1    0.35    1.66
 -27   5  -1    1.29    2.32
  26  -6   1    2.96    1.99
 -26   6  -1    3.06    2.32
 -26   6  -1    2.16    1.49
  25  -7   1   29.10    3.64
 -25   7  -1   30.98    3.97
 -25   7  -1   27.16    2.98
  24  -8   1    0.76    1.99
 -24   8  -1    0.96    1.66
 -24   8  -1    1.26    2.32
  23  -9   1   51.73    3.48
 -23   9  -1   54.32    3.48
 -23   9  -1   52.93    3.81
  22 -10   1    0.79    2.15
 -22  10  -1    0.84    2.48
 -22  10  -1    1.49    1.99
  21 -11   1    6.15    2.32
 -21  11  -1    7.09    1.99
  20 -12   1    0.57    2.32
  19 -13   1   13.63    2.32
  18 -14   1   -0.08    2.32
  17 -15   1    2.58    2.48
  30   0   1    2.56    2.65
 -30   0  -1    2.56    2.15
  29  -1   1   -0.16    2.32
 -29   1  -1   -0.35    1.82
  28  -2   1    4.30    2.32
 -28   2  -1    4.99    2.15
  27  -3   1    1.72    2.15
 -27   3  -1    1.76    1.82
  26  -4   1    1.22    1.82
 -26   4  -1    1.77    2.15
 -26   4  -1    1.32    1.66
  25  -5   1   30.73    4.47
 -25   5  -1   28.09    4.14
 -25   5  -1   32.81    4.80
  24  -6   1    1.02    1.99
 -24   6  -1   -0.03    1.32
 -24   6  -1    0.42    2.15
  23  -7   1   63.28    4.47
 -23   7  -1   63.97    4.80
 -23   7  -1   62.68    4.14
  22  -8   1    4.22    2.15
 -22   8  -1    4.47    1.82
 -22   8  -1    5.66    2.65
  21  -9   1   12.13    2.15
 -21   9  -1   13.18    1.99
 -21   9  -1   11.59    2.48
  20 -10   1    0.32    2.15
 -20  10  -1    1.26    1.82
 -20  10  -1    0.02    2.15
  19 -11   1   23.14    2.48
 -19  11  -1   24.14    2.15
  18 -12   1    6.79    2.48
 -18  12  -1    7.49    2.15
  17 -13   1    1.08    2.32
 -17  13  -1    0.69    1.99
  16 -14   1   15.40    2.65
  15 -15   1    1.33    2.15
  14 -16   1    4.89    2.48
  30   2   1    3.94    2.32
 -30  -2  -1    4.38    2.32
  29   1   1   -0.30    1.99
 -29  -1  -1    0.24    1.99
  28   0   1    4.12    2.32
 -28   0  -1    4.47    2.15
  27  -1   1    0.02    1.99
 -27   1  -1    0.47    1.66
  26  -2   1    5.49    1.99
 -26   2  -1    6.18    1.82
  25  -3   1   76.83    6.95
 -25   3  -1   80.95    7.28
 -25   3  -1   78.96    6.95
  24  -4   1   -0.13    1.82
 -24   4  -1    0.61    1.49
 -24   4  -1    1.11    1.99
  23  -5   1   67.37    4.80
 -23   5  -1   61.26    4.30
 -23   5  -1   67.67    4.97
  22  -6   1    1.31    1.99
 -22   6  -1    0.71    1.32
 -22   6  -1    1.40    2.15
  21  -7   1   15.95    2.15
 -21   7  -1   16.20    1.66
 -21   7  -1   16.55    2.32
  20  -8   1    5.53    1.99
 -20   8  -1    6.58    1.66
 -20   8  -1    5.68    2.15
  19  -9   1   23.08    2.48
 -19   9  -1   25.07    2.32
 -19   9  -1   23.08    2.65
  18 -10   1    1.53    2.15
 -18  10  -1    2.18    1.82
 -18  10  -1    1.48    2.15
  17 -11   1    5.15    2.15
 -17  11  -1    5.54    1.82
 -17  11  -1    5.59    2.32
  16 -12   1   67.49    4.63
 -16  12  -1   68.58    4.30
  15 -13   1    0.51    2.15
 -15  13  -1    1.06    1.99
  14 -14   1    2.02    2.15
 -14  14  -1    1.13    1.82
  13 -15   1   -0.58    1.99
  12 -16   1    0.45    2.15
  11 -17   1   13.78    2.65
 -30  -4  -1    1.28    2.32
 -29  -3  -1    1.85    1.99
  28   2   1    5.34    2.32
 -28  -2  -1    4.25    1.99
  27   1   1    0.27    2.15
 -27  -1  -1    0.17    1.66
  26   0   1    9.57    2.15
 -26   0  -1   10.37    1.99
  25  -1   1   43.91    5.46
 -25   1  -1   44.91    5.30
  24  -2   1   -0.02    1.66
 -24   2  -1   -0.22    1.32
 -24   2  -1    0.47    1.66
  23  -3   1  127.51    9.10
 -23   3  -1  133.07    9.27
 -23   3  -1  132.13    9.43
  22  -4   1   20.88    3.31
 -22   4  -1   21.38    2.98
 -22   4  -1   22.67    3.31
  21  -5   1   13.81    1.99
 -21   5  -1   14.41    2.15
 -21   5  -1   12.87    1.32
  20  -6   1    0.17    1.66
 -20   6  -1    0.12    1.82
 -20   6  -1    0.72    1.16
  19  -7   1   49.83    3.14
 -19   7  -1   49.23    2.65
 -19   7  -1   48.53    3.14
  18  -8   1   23.41    2.81
 -18   8  -1   24.60    2.48
 -18   8  -1   24.00    2.98
  17  -9   1   12.45    2.32
 -17   9  -1   12.99    2.15
 -17   9  -1   12.45    2.48
  16 -10   1   73.26    5.13
 -16  10  -1   71.77    5.30
 -16  10  -1   75.25    4.97
  15 -11   1    0.18    1.82
 -15  11  -1    0.13    1.99
 -15  11  -1   -0.02    1.49
  14 -12   1   11.57    2.15
 -14  12  -1   12.12    1.82
  13 -13   1    8.29    2.48
 -13  13  -1    7.20    2.32
  12 -14   1   -0.21    1.82
 -12  14  -1    0.43    1.99
  11 -15   1    4.77    1.99
 -11  15  -1    5.66    2.32
  10 -16   1    3.14    2.15
   9 -17   1    4.07    1.99
 -29  -5  -1    0.87    2.32
 -28  -4  -1    1.80    1.99
  27   3   1    2.86    2.15
 -27  -3  -1    2.76    1.99
  26   2   1    6.28    1.99
 -26  -2  -1    5.83    1.66
  25   1   1   45.01    5.46
 -25  -1  -1   44.76    5.46
  24   0   1   17.01    2.15
 -24   0  -1   16.57    1.82
  23  -1   1  100.16    7.45
 -23   1  -1  103.18    7.78
 -23   1  -1  102.49    7.61
  22  -2   1    7.95    2.32
 -22   2  -1    8.50    2.15
 -22   2  -1    7.51    2.32
  21  -3   1   20.63    1.99
 -21   3  -1   20.78    1.66
 -21   3  -1   21.13    1.99
  20  -4   1   31.13    2.81
 -20   4  -1   28.70    2.32
 -20   4  -1   31.63    2.81
  19  -5   1   61.37    3.97
 -19   5  -1   57.45    3.48
 -19   5  -1   58.64    3.97
  18  -6   1    1.71    1.82
 -18   6  -1    2.01    1.32
 -18   6  -1    3.40    2.15
  17  -7   1   22.20    2.48
 -17   7  -1   21.55    1.99
 -17   7  -1   20.81    2.48
  16  -8   1  202.55   12.58
 -16   8  -1  208.46   13.08
 -16   8  -1  209.16   12.74
  15  -9   1   11.28    1.82
 -15   9  -1   11.13    1.82
 -15   9  -1   10.64    1.49
  14 -10   1   11.34    2.15
 -14  10  -1   11.74    1.82
 -14  10  -1   11.10    2.15
  13 -11   1    9.51    1.99
 -13  11  -1    9.66    1.82
  12 -12   1    5.04    1.82
 -12  12  -1    5.29    1.66
  11 -13   1   44.34    3.64
 -11  13  -1   45.04    3.64
  10 -14   1    5.04    1.99
 -10  14  -1    5.28    1.99
   9 -15   1    1.57    1.99
  -9  15  -1    1.72    1.99
   8 -16   1    5.19    1.99
   7 -17   1    1.66    1.99
 -28  -6  -1    1.50    2.15
 -27  -5  -1    0.64    1.99
 -26  -4  -1    1.42    1.82
  25   3   1   79.46    6.95
 -25  -3  -1   78.81    7.12
  24   2   1    0.62    1.82
 -24  -2  -1   -0.22    1.49
  23   1   1  104.62    7.61
 -23  -1  -1  100.06    7.61
  22   0   1    0.63    1.66
 -22   0  -1    1.12    1.49
 -22   0  -1    1.22    1.49
  21  -1   1   29.46    2.32
 -21   1  -1   30.65    2.15
 -21   1  -1   31.05    2.32
  20  -2   1    4.40    1.66
 -20   2  -1    5.04    1.66
 -20   2  -1    4.20    1.32
  19  -3   1  106.13    5.96
 -19   3  -1  103.01    5.79
 -19   3  -1  104.64    6.12
  18  -4   1   72.69    4.30
 -18   4  -1   67.57    3.81
 -18   4  -1   70.35    4.14
  17  -5   1    9.53    1.66
 -17   5  -1    9.58    1.32
 -17   5  -1    8.69    1.66
  16  -6   1  139.22   10.43
 -16   6  -1  143.68   10.92
 -16   6  -1  144.38   10.43
  15  -7   1    3.28    1.32
 -15   7  -1    2.69    1.49
 -15   7  -1    2.54    0.99
  14  -8   1   66.88    2.98
 -14   8  -1   65.94    3.14
 -14   8  -1   66.69    2.81
  13  -9   1    2.52    1.82
 -13   9  -1    1.67    1.49
 -13   9  -1    1.92    1.82
  12 -10   1    1.98    1.82
 -12  10  -1    2.53    1.82
 -12  10  -1    2.38    1.66
  11 -11   1   51.35    3.97
 -11  11  -1   50.31    3.64
  10 -12   1    0.07    1.66
 -10  12  -1   -0.37    1.49
   9 -13   1   25.25    2.65
  -9  13  -1   24.96    2.48
   8 -14   1    5.82    1.66
  -8  14  -1    6.07    1.66
   7 -15   1    1.43    1.82
   6 -16   1    3.02    1.99
   4 -18   1    6.22    2.98
 -27  -7  -1   -0.43    1.99
 -26  -6  -1    2.91    1.99
 -25  -5  -1   31.57    4.63
  24   4   1    0.42    1.66
 -24  -4  -1    0.37    1.66
  23   3   1  131.39    9.10
 -23  -3  -1  131.04    9.27
  22   2   1    8.50    2.32
 -22  -2  -1    8.65    2.15
  21   1   1   29.71    2.32
 -21  -1  -1   30.06    2.15
 -21  -1  -1   30.70    2.15
  20   0   1    5.13    1.49
 -20   0  -1    5.33    1.32
 -20   0  -1    4.73    1.32
  19  -1   1   57.21    4.30
 -19   1  -1   55.92    4.30
 -19   1  -1   55.53    4.30
  18  -2   1    6.35    2.15
 -18   2  -1    5.90    1.99
 -18   2  -1    5.80    1.66
  17  -3   1   21.06    1.82
 -17   3  -1   20.46    1.49
 -17   3  -1   20.76    1.82
  16  -4   1  407.37   25.66
 -16   4  -1  409.61   26.81
 -16   4  -1  386.82   26.32
  15  -5   1    3.12    1.82
 -15   5  -1    4.22    1.99
 -15   5  -1    3.97    1.49
 -14   6  -1    5.44    1.32
 -14   6  -1    4.20    1.66
 -13   7  -1   16.98    2.65
 -13   7  -1   16.93    2.48
  12  -8   1    8.47    2.32
 -12   8  -1    9.71    2.15
 -12   8  -1    9.16    2.48
  11  -9   1   69.50    5.30
 -11   9  -1   68.95    5.13
  10 -10   1   17.43    2.98
 -10  10  -1   17.63    2.81
 -10  10  -1   16.09    2.81
   9 -11   1   17.02    1.99
  -9  11  -1   17.42    1.82
   8 -12   1    1.29    1.66
  -8  12  -1    0.49    1.49
   7 -13   1   15.50    2.15
  -7  13  -1   15.10    1.99
   6 -14   1    2.72    1.82
   5 -15   1    3.59    1.82
   4 -16   1    0.71    1.82
   3 -17   1   14.19    3.31
   2 -18   1   13.08    3.31
 -26  -8  -1    2.85    2.15
 -25  -7  -1   31.38    3.97
 -24  -6  -1    0.07    1.66
 -23  -5  -1   67.67    5.30
  22   4   1   22.27    3.14
 -22  -4  -1   22.07    3.31
  21   3   1   20.83    1.66
 -21  -3  -1   20.68    1.66
  20   2   1    4.50    1.49
 -20  -2  -1    4.20    1.32
 -20  -2  -1    4.60    1.49
  19   1   1   55.48    4.14
 -19  -1  -1   55.03    4.14
 -19  -1  -1   56.17    3.97
  18   0   1   62.82    4.30
 -18   0  -1   63.17    4.30
 -18   0  -1   63.57    4.14
  17  -1   1   57.20    3.14
 -17   1  -1   57.25    2.98
 -17   1  -1   56.25    3.14
  16  -2   1  213.54   18.37
 -16   2  -1  217.26   19.20
 -16   2  -1  210.46   18.87
  15  -3   1    2.00    0.99
 -15   3  -1    2.40    0.99
 -15   3  -1    2.25    0.66
  14  -4   1   73.48    2.65
 -14   4  -1   72.49    2.48
 -14   4  -1   73.58    2.15
  13  -5   1   67.37    6.12
 -13   5  -1   68.56    5.96
 -13   5  -1   68.41    6.29
  12  -6   1    4.12    0.66
 -12   6  -1    4.67    0.99
 -12   6  -1    4.57    1.32
  11  -7   1  172.90   10.92
 -11   7  -1  173.70   11.09
 -11   7  -1  169.73   11.42
  10  -8   1   98.33    5.63
 -10   8  -1   99.62    5.63
   9  -9   1   60.04    4.97
  -9   9  -1   63.17    5.13
   8 -10   1   30.86    2.15
  -8  10  -1   31.75    2.15
   7 -11   1    9.56    1.82
  -7  11  -1    9.81    1.66
   6 -12   1    0.26    1.49
  -6  12  -1    0.21    1.49
   5 -13   1   32.94    2.48
   4 -14   1   29.19    2.98
   3 -15   1    3.68    1.82
   2 -16   1    9.75    2.15
   1 -17   1    0.20    2.81
   0 -18   1    1.72    2.98
 -25  -9  -1   25.59    2.98
 -24  -8  -1    0.91    1.82
 -23  -7  -1   64.62    4.47
 -22  -6  -1    0.51    1.66
  21   5   1   13.81    1.66
 -21  -5  -1   13.91    1.66
  20   4   1   30.89    2.48
 -20  -4  -1   30.64    2.65
  19   3   1  105.69    5.96
 -19  -3  -1  106.28    6.12
 -19  -3  -1  105.24    5.96
  18   2   1    6.40    1.99
 -18  -2  -1    5.95    1.66
 -18  -2  -1    5.95    1.82
  17   1   1   56.50    2.98
 -17  -1  -1   57.40    2.98
 -17  -1  -1   56.25    2.98
  16   0   1  578.05   44.36
 -16   0  -1  588.38   46.35
 -16   0  -1  576.37   45.68
  15  -1   1    8.18    1.32
 -15   1  -1    7.68    1.16
  14  -2   1    6.58    1.82
 -14   2  -1    6.82    1.82
 -14   2  -1    6.77    1.66
  13  -3   1   21.44    2.15
 -13   3  -1   19.51    1.82
 -13   3  -1   21.14    2.15
  12  -4   1    3.13    0.99
 -12   4  -1    3.33    0.66
 -12   4  -1    3.08    0.99
 -11   5  -1  258.74   14.90
 -11   5  -1  261.87   14.57
  10  -6   1    1.02    1.32
 -10   6  -1    0.97    1.32
 -10   6  -1    1.51    0.99
   9  -7   1  141.69    8.44
  -9   7  -1  147.10    8.61
  -9   7  -1  137.52    8.77
   8  -8   1   80.41    4.97
  -8   8  -1   80.31    4.80
   7  -9   1   69.92    5.30
  -7   9  -1   68.92    5.30
  -7   9  -1   68.43    5.63
   6 -10   1    0.40    1.32
  -6  10  -1    0.00    1.16
   5 -11   1   21.20    1.82
  -5  11  -1   21.15    1.66
   4 -12   1    9.03    1.82
   3 -13   1   25.97    2.98
   2 -14   1   36.62    2.81
   1 -15   1   21.77    2.32
   0 -16   1    0.19    2.48
  -1 -17   1    2.43    2.81
  -2 -18   1    9.90    2.98
 -24 -10  -1   -0.49    1.99
 -23  -9  -1   52.43    3.31
 -22  -8  -1    4.97    2.15
 -21  -7  -1   15.70    1.82
 -20  -6  -1    0.37    1.49
  19   5   1   60.68    3.97
 -19  -5  -1   61.77    4.30
  18   4   1   71.84    4.30
 -18  -4  -1   71.74    4.14
 -18  -4  -1   72.49    4.47
  17   3   1   20.91    1.66
 -17  -3  -1   21.06    1.49
 -17  -3  -1   20.91    1.66
  16   2   1  217.56   19.53
 -16  -2  -1  220.74   20.19
 -16  -2  -1  221.04   20.36
  15   1   1    7.23    1.16
 -15  -1  -1    7.98    0.99
  14   0   1  147.68    6.46
 -14   0  -1  146.98    6.46
 -14   0  -1  147.68    6.62
  13  -1   1   48.05    3.97
 -13   1  -1   45.62    3.81
 -13   1  -1   46.02    3.97
  12  -2   1    5.99    0.99
 -12   2  -1    6.29    0.99
 -12   2  -1    5.84    0.66
  11  -3   1  293.90   16.39
 -11   3  -1  289.28   17.05
 -11   3  -1  286.50   16.72
  10  -4   1  115.19    3.81
 -10   4  -1  114.20    3.81
 -10   4  -1  114.25    3.64
  -9   5  -1   84.38    6.29
  -9   5  -1   84.03    5.96
   8  -6   1   12.60    0.99
  -8   6  -1   12.70    0.83
  -8   6  -1   12.16    0.99
   7  -7   1  132.10    8.28
  -7   7  -1  134.43    8.28
  -7   7  -1  128.72    8.44
   6  -8   1    4.13    1.16
  -6   8  -1    3.63    1.16
  -6   8  -1    3.88    0.83
   5  -9   1  112.20    5.79
  -5   9  -1  112.50    5.96
  -5   9  -1  110.41    6.12
   4 -10   1   45.10    4.30
  -4  10  -1   45.35    4.30
   3 -11   1   48.73    2.48
   2 -12   1   67.92    4.47
   1 -13   1    7.37    1.49
   0 -14   1    0.49    1.32
  -1 -15   1   39.17    3.31
  -1 -15   1   39.27    2.48
  -2 -16   1   32.78    3.31
  -3 -17   1   -0.36    2.48
 -23 -11  -1   20.59    2.65
 -22 -10  -1    0.84    2.15
 -21  -9  -1   11.64    1.99
 -20  -8  -1    5.78    1.82
 -19  -7  -1   48.43    2.65
  18   6   1    2.11    1.32
 -18  -6  -1    2.21    1.66
  17   5   1    8.79    1.32
 -17  -5  -1    9.08    1.49
 -17  -5  -1    8.79    1.16
  16   4   1  416.41   28.47
 -16  -4  -1  412.69   29.46
 -16  -4  -1  415.62   29.79
  15   3   1    2.50    0.83
 -15  -3  -1    2.45    0.83
 -15  -3  -1    2.75    0.99
  14   2   1    6.77    1.66
 -14  -2  -1    6.08    1.66
 -14  -2  -1    7.67    1.66
  13   1   1   46.96    3.97
 -13  -1  -1   47.26    4.14
 -13  -1  -1   47.56    4.14
  12   0   1    2.79    1.32
 -12   0  -1    3.93    1.32
 -12   0  -1    3.44    1.16
  11  -1   1  407.91   20.69
 -11   1  -1  400.96   21.19
 -11   1  -1  404.29   21.52
  10  -2   1  135.20   10.10
 -10   2  -1  132.37   10.43
   9  -3   1  225.70   12.91
  -9   3  -1  227.54   13.08
  -9   3  -1  224.46   13.41
  -8   4  -1  105.73    6.12
  -8   4  -1  107.77    6.46
   7  -5   1   11.77    2.15
  -7   5  -1   10.92    2.15
  -7   5  -1   10.08    1.82
   6  -6   1   14.27    1.82
  -6   6  -1   13.72    1.82
   5  -7   1  153.12    7.61
  -5   7  -1  151.18    7.94
  -5   7  -1  153.07    7.61
   4  -8   1   49.71    3.48
  -4   8  -1   49.21    3.48
  -4   8  -1   49.26    3.64
   3  -9   1   62.04    5.30
  -3   9  -1   62.39    5.46
   2 -10   1  107.41    5.96
   1 -11   1   25.41    2.98
   0 -12   1   19.45    1.99
  -1 -13   1   14.56    1.49
  -2 -14   1   10.20    2.32
  -2 -14   1   10.45    1.66
  -3 -15   1    0.43    2.32
  -4 -16   1   16.65    2.48
  -5 -17   1   -0.04    2.48
  -6 -18   1    0.98    2.48
 -22 -12  -1    0.84    2.15
 -21 -11  -1    6.40    1.99
 -20 -10  -1   -0.03    1.82
 -19  -9  -1   23.23    2.15
 -18  -8  -1   23.41    2.48
 -17  -7  -1   21.20    2.15
  16   6   1  144.13   10.76
 -16  -6  -1  147.06   11.26
 -16  -6  -1  145.67   11.09
  15   5   1    4.12    1.66
 -15  -5  -1    4.91    1.66
 -15  -5  -1    4.91    1.82
  14   4   1   72.79    2.15
 -14  -4  -1   73.18    2.48
 -14  -4  -1   74.77    2.15
  13   3   1   21.44    1.99
 -13  -3  -1   20.45    2.15
 -13  -3  -1   20.90    1.82
  12   2   1    6.14    0.83
 -12  -2  -1    6.29    0.83
 -12  -2  -1    5.74    0.66
 -11  -1  -1  401.91   21.35
 -11  -1  -1  406.28   21.19
 -10   0  -1  212.03    2.98
  -9   1  -1  260.90   19.20
  -9   1  -1  253.20   19.53
  -8   2  -1  215.06   11.92
  -8   2  -1  211.48   11.75
  -7   3  -1  166.29   14.07
  -7   3  -1  182.88   13.74
   6  -4   1   18.59    0.83
  -6   4  -1   18.59    0.83
   5  -5   1   33.57    2.15
  -5   5  -1   33.86    1.99
   4  -6   1  181.07   12.08
  -4   6  -1  180.02   12.74
   3  -7   1  326.42   17.88
  -3   7  -1  318.53   18.70
  -3   7  -1  312.02   18.37
  -2   8  -1  395.61   25.82
   1  11  -1   90.07    5.46
  -3 -13   1    6.37    1.99
  -4 -14   1    2.25    1.99
  -5 -15   1    5.23    2.32
  -6 -16   1    1.05    2.32
  -7 -17   1    6.98    2.65
 -21 -13  -1    1.60    2.15
 -20 -12  -1    0.67    2.15
 -19 -11  -1   22.50    2.15
 -18 -10  -1    1.73    1.99
 -17  -9  -1   11.50    1.99
 -16  -8  -1  205.83   12.41
 -16  -8  -1  207.27   12.74
  15   7   1    3.13    0.99
 -15  -7  -1    3.28    0.99
 -15  -7  -1    3.18    1.32
  14   6   1    5.49    1.16
 -14  -6  -1    5.14    1.16
 -14  -6  -1    5.29    1.49
 -13  -5  -1   67.62    5.96
 -13  -5  -1   69.90    6.29
  12   4   1    3.18    0.33
 -12  -4  -1    3.08    0.66
 -12  -4  -1    2.88    0.83
  11   3   1  287.25   16.22
 -11  -3  -1  292.21   16.88
 -11  -3  -1  292.01   17.05
  10   2   1  135.25   10.43
 -10  -2  -1  136.79   10.76
 -10  -2  -1  134.65   10.76
   9   1   1  256.48   20.86
  -9  -1  -1  278.23   21.85
   8   0   1  191.20    7.78
  -8   0  -1  192.74    7.94
  -8   0  -1  190.95    8.11
   7  -1   1  156.56   18.21
  -7   1  -1  151.90   19.03
  -7   1  -1  145.44   18.70
   6  -2   1   60.40    4.80
  -6   2  -1   59.51    4.97
  -6   2  -1   59.36    4.80
  -5   3  -1   86.34    2.48
   4  -4   1    5.16    0.66
  -4   4  -1    5.26    0.66
   3  -5   1  111.75    5.79
  -3   5  -1  110.31    5.79
  -2   6  -1  477.85   25.32
  -2   6  -1  488.57   25.66
  -2   6  -1  470.25   24.50
  -1   7  -1   20.64    3.14
   0   8  -1  103.25    6.79
   1   9  -1  162.38    6.46
   2  10  -1   77.73    3.14
   3  11  -1    1.51    1.32
  -4 -12   1   84.36    3.48
   4  12  -1   85.55    3.31
  -5 -13   1    4.15    1.66
   5  13  -1    4.74    1.49
  -6 -14   1    0.85    1.82
  -7 -15   1   24.15    2.81
  -8 -16   1    5.84    2.15
  -9 -17   1    5.34    2.65
 -19 -13  -1   14.57    2.32
 -18 -12  -1    6.50    2.15
 -17 -11  -1    5.49    1.82
 -16 -10  -1   71.33    4.47
 -15  -9  -1   10.84    1.49
 -15  -9  -1   11.68    1.32
 -14  -8  -1   66.24    2.98
 -14  -8  -1   66.29    2.48
 -13  -7  -1   15.54    2.15
 -13  -7  -1   16.19    1.99
  12   6   1    4.57    0.66
 -12  -6  -1    4.07    0.83
 -12  -6  -1    4.57    1.16
  11   5   1  259.49   13.74
 -11  -5  -1  259.53   14.57
 -11  -5  -1  260.08   14.40
  10   4   1  115.19    3.64
 -10  -4  -1  114.75    3.64
 -10  -4  -1  115.39    3.97
   9   3   1  233.74   14.90
  -9  -3  -1  238.11   15.56
   8   2   1  215.80   11.75
  -8  -2  -1  214.96   12.25
   7   1   1  152.64   18.87
  -7  -1  -1  155.03   19.53
  -7  -1  -1  156.27   19.86
   6   0   1  182.83   15.23
  -6   0  -1  181.89   15.89
  -6   0  -1  182.54   15.56
   5  -1   1  273.90   18.54
  -5   1  -1  268.54   19.37
  -5   1  -1  261.14   19.03
   4  -2   1 1132.39   69.35
  -4   2  -1 1124.59   71.67
  -3   3  -1  219.42   13.08
  -3   3  -1  222.25   12.91
  -2   4  -1  546.99   41.88
  -2   4  -1  540.53   42.37
  -2   4  -1  547.49   40.39
  -1   5  -1  230.23   21.85
  -1   5  -1  226.26   21.02
   0   6  -1   48.32    2.32
   1   7  -1  146.18    6.62
   2   8  -1  625.93   35.09
   3   9  -1   -0.08    0.83
   4  10  -1    8.11    1.32
  -5 -11   1   20.18    3.48
   5  11  -1   21.22    3.14
  -6 -12   1   11.28    1.99
   6  12  -1   11.67    1.66
  -7 -13   1    8.32    1.82
  -8 -14   1    6.97    1.99
  -8 -14   1    8.27    1.99
  -9 -15   1   30.84    2.98
 -10 -16   1    2.41    2.32
 -11 -17   1   -0.46    2.32
 -18 -14  -1    0.91    2.32
 -17 -13  -1    0.49    1.99
 -16 -12  -1   67.39    4.30
 -15 -11  -1   -0.37    1.66
 -14 -10  -1    9.85    1.66
 -14 -10  -1   12.04    1.66
 -13  -9  -1    1.57    1.49
 -13  -9  -1    1.57    1.49
  12   8   1    6.58    1.16
 -12  -8  -1    8.22    1.66
  11   7   1  172.56   10.26
 -11  -7  -1  167.99   10.92
 -11  -7  -1  171.96   10.92
  10   6   1    1.31    0.83
 -10  -6  -1    1.51    0.99
 -10  -6  -1    1.02    1.16
   9   5   1   88.10    6.46
  -9  -5  -1   87.41    6.95
  -9  -5  -1   86.36    6.79
   8   4   1  107.47    5.79
  -8  -4  -1  104.39    6.12
  -8  -4  -1  106.03    6.12
   7   3   1  177.37   14.90
  -7  -3  -1  186.55   15.56
   6   2   1   59.80    4.80
  -6  -2  -1   60.10    4.97
  -6  -2  -1   60.35    4.97
   5   1   1  272.11   19.03
  -5  -1  -1  268.14   19.86
  -5  -1  -1  271.22   19.70
   4   0   1   80.72   10.43
  -4   0  -1   77.79   10.76
  -4   0  -1   77.94   10.92
   3  -1   1 1000.62   50.98
  -3   1  -1  972.56   52.80
  -2   2  -1 2177.70  115.20
  -2   2  -1 2186.19  113.55
  -1   3  -1  679.91   67.04
  -1   3  -1  627.58   68.03
  -1   3  -1  679.07   64.88
   0   4  -1    7.54    1.82
   0   4  -1    7.54    1.66
   1   5  -1  561.18   31.78
   1   5  -1  580.30   30.29
   2   6  -1  379.71   14.07
   3   7  -1   35.02    0.99
   4   8  -1  333.95   13.41
  -5  -9   1    6.88    1.99
   5   9  -1    6.58    1.66
  -6 -10   1   14.16    1.49
   6  10  -1   14.06    1.16
  -7 -11   1   57.28    3.81
   7  11  -1   57.23    3.64
  -8 -12   1    7.73    1.49
  -8 -12   1    7.13    1.66
   8  12  -1    7.08    1.32
  -9 -13   1   14.92    1.99
  -9 -13   1   13.73    1.99
 -10 -14   1    5.36    1.99
 -11 -15   1    5.28    2.32
 -12 -16   1    3.99    2.15
 -17 -15  -1    3.82    2.32
 -16 -14  -1   15.55    2.48
 -15 -13  -1    0.27    1.82
 -14 -12  -1   11.13    1.82
 -13 -11  -1    9.76    1.82
 -13 -11  -1    9.51    1.99
 -12 -10  -1    0.99    1.49
 -12 -10  -1    2.18    1.66
  10   8   1   98.62    4.97
 -10  -8  -1   98.13    5.46
   9   7   1  145.26    7.94
  -9  -7  -1  138.51    8.61
  -9  -7  -1  140.79    8.44
   8   6   1   12.45    0.50
  -8  -6  -1   12.35    0.83
  -8  -6  -1   12.75    0.83
   7   5   1   12.31    1.99
  -7  -5  -1   12.46    2.32
   6   4   1   19.93    0.99
  -6  -4  -1   21.27    1.32
   5   3   1   96.92    4.47
  -5  -3  -1   95.53    4.63
   4   2   1 1108.16   66.21
  -4  -2  -1 1121.61   69.68
   3   1   1 1004.59   53.13
  -3  -1  -1  989.10   55.95
  -3  -1  -1  995.80   55.12
  -2   0  -1  848.98   42.87
   0   2  -1  180.65   30.62
   0   2  -1  202.75   32.28
   1   3  -1 1139.75   83.09
   1   3  -1 1074.06   87.06
   2   4  -1  575.84   33.60
   2   4  -1  569.19   35.26
   3   5  -1    8.68    1.16
   4   6  -1   11.29    0.83
   5   7  -1   12.06    1.66
  -6  -8   1  135.73    6.79
   6   8  -1  135.63    6.46
  -7  -9   1  165.90   10.43
   7   9  -1  165.01    9.93
  -8 -10   1   61.41    3.14
  -8 -10   1   61.95    2.98
   8  10  -1   62.05    2.65
  -9 -11   1   54.41    3.97
  -9 -11   1   55.01    4.30
   9  11  -1   57.39    3.81
 -10 -12   1    0.14    1.66
 -10 -12   1    0.24    1.49
 -11 -13   1    0.63    1.82
 -12 -14   1    5.90    1.99
 -13 -15   1    4.91    2.32
 -14 -16   1    7.95    2.48
 -15 -15  -1    1.53    2.15
 -14 -14  -1    1.77    2.15
 -13 -13  -1    7.20    2.32
 -12 -12  -1    4.99    1.82
 -12 -12  -1    5.09    1.82
 -11 -11  -1   48.82    3.64
 -11 -11  -1   50.71    3.48
 -10 -10  -1   15.84    2.65
 -10 -10  -1   16.73    2.48
  -9  -9  -1   61.48    4.97
   8   8   1   78.12    4.14
  -8  -8  -1   81.10    4.63
   7   7   1  131.10    7.94
  -7  -7  -1  133.64    8.44
   6   6   1   13.72    1.32
  -6  -6  -1   14.17    1.66
   5   5   1   34.21    1.82
  -5  -5  -1   33.62    2.15
   4   4   1    5.11    0.33
  -4  -4  -1    5.21    0.66
  -3  -3  -1  219.32   12.74
  -2  -2  -1 2179.59  114.71
   0   0   1  324.57   48.99
   0   0  -1  314.64   47.34
   0   0  -1  312.61   49.82
  -1  -1   1  621.84   26.65
   1   1  -1  613.39   26.98
  -2  -2   1  961.85   80.94
   2   2  -1  955.20   78.13
   2   2  -1  928.43   81.93
  -3  -3   1  155.45   16.22
   3   3  -1  151.08   15.56
  -4  -4   1  132.32    5.46
   4   4  -1  133.07    5.30
  -5  -5   1   28.83    2.98
   5   5  -1   28.38    2.81
  -6  -6   1   26.85    0.83
  -6  -6   1   27.15    0.83
   6   6  -1   26.36    0.50
  -7  -7   1  145.20    9.77
  -7  -7   1  146.94    9.77
   7   7  -1  144.21    9.27
  -8  -8   1    1.29    1.32
  -8  -8   1    1.34    1.16
   8   8  -1    1.39    0.99
  -9  -9   1  229.54   12.58
  -9  -9   1  231.18   12.74
   9   9  -1  235.35   12.08
 -10 -10   1   50.33    2.98
 -10 -10   1   50.97    3.31
  10  10  -1   49.93    2.81
 -11 -11   1    0.76    1.49
  11  11  -1    0.52    1.32
 -12 -12   1   52.31    2.15
 -13 -13   1    0.39    1.82
 -14 -14   1   41.53    2.81
 -15 -15   1   -0.19    2.15
 -16 -16   1   12.21    2.65
 -14 -16  -1    4.74    2.48
 -13 -15  -1   -0.08    2.15
 -12 -14  -1   -0.11    1.99
 -11 -13  -1   44.74    3.48
 -11 -13  -1   44.09    3.64
 -10 -12  -1   -0.42    1.66
 -10 -12  -1   -0.02    1.66
  -9 -11  -1   17.32    1.99
  -8 -10  -1   31.05    1.99
   7   9   1   67.43    4.63
  -7  -9  -1   69.27    5.13
   6   8   1    4.18    0.66
  -6  -8  -1    3.68    0.99
   5   7   1  152.37    7.28
  -5  -7  -1  152.77    7.78
   4   6   1  180.62   11.75
  -4  -6  -1  179.33   12.41
   3   5   1  110.31    5.30
  -3  -5  -1  109.37    5.79
   2   4   1  548.83   40.88
  -2  -4  -1  545.90   43.04
  -1  -3  -1  635.77   63.06
  -1  -3  -1  644.46   59.92
   0   2   1  197.93   33.93
   0  -2  -1  205.04   32.77
  -1   1   1  630.48   27.31
   1  -1  -1  615.63   26.48
   1  -1  -1  616.87   27.81
  -2   0   1 2457.84  126.46
   2   0  -1 2452.27  128.28
  -3  -1   1    7.68    0.50
   3   1  -1    7.38    0.50
  -4  -2   1   56.94    0.99
   4   2  -1   56.65    0.99
  -5  -3   1    3.24    0.50
  -5  -3   1    3.04    0.50
   5   3  -1    3.14    0.50
  -6  -4   1   33.51    0.66
  -6  -4   1   33.47    0.83
   6   4  -1   33.56    0.83
  -7  -5   1  183.14   10.10
  -7  -5   1  185.67   10.10
   7   5  -1  181.25    9.60
  -8  -6   1   96.15    7.45
  -8  -6   1   96.54    7.61
  -9  -7   1  192.20   12.25
  -9  -7   1  199.50   12.25
   9   7  -1  198.96   11.75
 -10  -8   1    1.68    1.32
 -10  -8   1    1.63    1.16
  10   8  -1    2.37    1.16
 -11  -9   1   30.72    2.32
 -11  -9   1   31.46    2.15
  11   9  -1   32.60    2.15
 -12 -10   1   10.23    1.49
  12  10  -1   10.28    1.16
 -13 -11   1    4.71    1.99
 -14 -12   1    4.95    1.82
 -15 -13   1    0.51    1.99
 -16 -14   1   49.98    3.14
 -17 -15   1    0.04    2.15
 -12 -16  -1    0.65    2.32
 -11 -15  -1    4.81    2.32
 -10 -14  -1    4.69    2.15
 -10 -14  -1    4.54    2.15
  -9 -13  -1   24.71    2.48
  -8 -12  -1    1.29    1.66
  -7 -11  -1    9.91    1.66
   6  10   1    0.05    0.83
  -6 -10  -1    0.10    1.32
   5   9   1  111.41    5.30
  -5  -9  -1  111.11    5.96
   4   8   1   50.40    3.14
  -4  -8  -1   48.91    3.64
   3   7   1  323.84   18.04
  -3  -7  -1  317.34   19.20
  -2  -6  -1  491.01   28.47
  -1  -5  -1  219.51   17.55
  -1  -5  -1  204.81   18.54
   0  -4  -1    8.78    1.66
   0  -4  -1    7.14    1.99
   2  -2  -1  937.62   80.44
   2  -2  -1  945.32   76.64
  -3   1   1    7.13    0.33
   3  -1  -1    7.38    0.50
   3  -1  -1    7.43    0.50
  -4   0   1  655.15   53.46
  -5  -1   1  146.92   10.10
   5   1  -1  148.36    9.77
  -6  -2   1  106.94    8.44
   6   2  -1  106.24    8.28
  -7  -3   1  301.33   24.33
   7   3  -1  311.96   23.50
  -8  -4   1   79.65    2.98
  -8  -4   1   79.70    2.81
   8   4  -1   79.50    2.81
  -9  -5   1  152.10   10.59
  -9  -5   1  145.49   10.76
 -10  -6   1   72.72    3.64
 -10  -6   1   73.26    3.97
  10   6  -1   74.01    3.64
 -11  -7   1    8.02    0.83
 -11  -7   1    7.97    1.16
  11   7  -1    8.42    1.16
 -12  -8   1   48.39    1.32
 -12  -8   1   47.60    1.66
  12   8  -1   48.84    1.49
 -13  -9   1   22.61    2.65
  13   9  -1   22.86    2.48
 -14 -10   1  162.23    7.61
  14  10  -1  163.22    7.12
 -15 -11   1    1.68    1.82
 -16 -12   1   19.15    2.48
 -17 -13   1    5.16    1.99
 -18 -14   1    7.15    2.32
 -11 -17  -1   12.54    2.65
 -10 -16  -1    2.00    2.32
  -9 -15  -1    1.37    1.99
  -8 -14  -1    6.52    1.99
  -7 -13  -1   16.69    2.32
  -6 -12  -1    0.71    1.66
  -5 -11  -1   21.40    1.99
  -4 -10  -1   44.65    4.30
  -3  -9  -1   61.15    5.46
  -3  -9  -1   61.65    4.80
  -2  -8  -1  402.56   26.15
  -2  -8  -1  399.88   27.64
  -1  -7  -1   16.07    2.98
  -1  -7  -1   19.55    2.48
   0   6   1  106.77   16.22
   0  -6  -1  113.13   16.55
   0  -6  -1  112.48   15.56
   1  -5  -1  561.87   31.28
   1  -5  -1  573.74   29.63
  -2   4   1  579.92   37.24
   2  -4  -1  586.67   35.92
  -3   3   1  152.71   16.22
   3  -3  -1  153.76   15.56
  -4   2   1   55.75    0.83
   5  -1  -1  128.80    5.79
  -7  -1   1  553.81   31.45
   7   1  -1  569.85   30.12
  -8  -2   1   37.92    0.50
   8   2  -1   39.17    0.83
 -10  -4   1   15.42    2.81
 -10  -4   1   14.98    2.48
  10   4  -1   14.68    2.65
 -11  -5   1   15.87    1.66
 -11  -5   1   15.47    1.32
  11   5  -1   16.16    1.66
 -12  -6   1   89.78    2.98
 -12  -6   1   87.85    2.48
  12   6  -1   88.54    2.65
 -13  -7   1   21.38    2.32
 -13  -7   1   21.78    2.81
  13   7  -1   21.33    2.48
 -14  -8   1   97.79    6.12
  14   8  -1   98.23    5.79
 -15  -9   1    2.56    1.66
  15   9  -1    3.50    1.49
 -16 -10   1  214.54   10.92
 -17 -11   1    0.80    1.82
 -18 -12   1    0.88    1.99
 -19 -13   1    1.69    2.15
 -20 -14   1    0.56    2.32
  -9 -17  -1    5.01    2.65
  -8 -16  -1    5.68    2.32
  -7 -15  -1    1.08    2.15
  -6 -14  -1    2.08    1.99
  -5 -13  -1   34.08    2.98
  -4 -12  -1    7.79    1.82
  -3 -11  -1   49.08    2.32
  -3 -11  -1   50.72    3.14
  -2 -10  -1  107.51    5.63
  -2 -10  -1  106.41    6.29
  -1  -9  -1   80.68    4.30
  -1  -9  -1   82.97    3.81
   0  -8  -1  104.00    7.28
   0  -8  -1  109.21    7.94
  -1   7   1  147.77    7.28
   1  -7  -1  146.28    7.45
   1  -7  -1  149.31    6.95
  -2   6   1  412.09   21.85
   2  -6  -1  411.44   21.02
  -4   4   1  130.73    5.30
   4  -4  -1  133.17    5.13
  -5   3   1    2.99    0.50
   5  -3  -1    3.04    0.50
  -6   2   1  103.91    8.11
   6  -2  -1  106.14    7.94
  -7   1   1  554.16   27.31
  -7   1   1  532.46   26.98
  -8   0   1  383.39   25.16
   8   0  -1  378.47   24.00
  10   2  -1   25.83    1.16
 -11  -3   1    7.98    0.50
  11   3  -1    7.83    0.66
 -12  -4   1  100.23    4.97
 -12  -4   1   99.79    5.30
  12   4  -1  100.08    5.13
 -13  -5   1    1.91    1.32
 -13  -5   1    2.75    0.83
  13   5  -1    2.15    1.16
 -14  -6   1  268.26   11.42
 -14  -6   1  270.94   11.26
  14   6  -1  271.44   11.09
 -15  -7   1    6.46    2.15
  15   7  -1    4.72    1.82
 -16  -8   1  136.59   10.10
  16   8  -1  137.28    9.60
 -17  -9   1   10.93    1.66
  17   9  -1   10.98    1.49
 -18 -10   1   57.02    4.30
 -19 -11   1    4.95    1.99
 -20 -12   1    0.23    1.99
 -21 -13   1    1.09    2.32
  -7 -17  -1    2.00    2.48
  -6 -16  -1    2.52    2.32
  -5 -15  -1    3.49    2.15
  -4 -14  -1   28.65    3.14
  -3 -13  -1   24.88    2.98
  -2 -12  -1   66.43    4.80
  -1 -11  -1   28.68    3.97
  -1 -11  -1   26.35    3.14
   0 -10  -1    6.51    1.66
   0 -10  -1    5.57    2.15
  -1   9   1  160.94    6.46
   1  -9  -1  161.28    6.62
   1  -9  -1  161.73    6.12
  -2   8   1  620.56   35.59
   2  -8  -1  624.69   34.43
  -3   7   1   37.85    1.99
   3  -7  -1   36.96    1.66
  -4   6   1   12.18    1.32
   4  -6  -1   11.88    1.16
  -5   5   1   24.66    1.99
   6  -4  -1   33.66    0.83
  -7   3   1  232.96    7.94
  -8   2   1   38.47    0.66
   8  -2  -1   37.28    0.33
 -10   0   1  129.62   14.57
  10   0  -1  128.42   14.07
 -11  -1   1    0.46    0.50
 -11  -1   1    0.75    0.50
  11   1  -1    0.75    0.66
 -12  -2   1  163.51    4.47
  12   2  -1  165.14    4.63
 -13  -3   1   49.29    4.47
  13   3  -1   49.29    4.63
 -14  -4   1  159.62    7.45
  14   4  -1  159.27    7.45
 -15  -5   1    5.76    1.16
  15   5  -1    6.40    1.66
 -17  -7   1    8.02    1.66
  17   7  -1    7.28    1.32
 -18  -8   1    5.95    1.99
  18   8  -1    6.59    1.99
 -19  -9   1    7.17    2.15
 -20 -10   1    8.69    2.15
 -21 -11   1    4.02    2.15
 -22 -12   1    0.24    2.15
  -6 -18  -1    0.52    2.65
  -5 -17  -1   10.07    2.65
  -4 -16  -1    0.16    2.32
  -3 -15  -1    4.18    2.32
  -2 -14  -1   37.81    3.48
  -1 -13  -1    7.18    1.99
   0 -12  -1   19.35    1.82
   0 -12  -1   18.41    2.48
   1 -11  -1   87.99    5.30
   1 -11  -1   86.00    4.63
  -2  10   1   76.44    3.14
   2 -10  -1   77.48    3.48
   2 -10  -1   75.49    2.81
  -3   9   1    0.42    0.99
   3  -9  -1   -0.03    0.83
  -4   8   1  335.14   14.90
   4  -8  -1  340.11   14.40
  -5   7   1   19.86    3.48
   5  -7  -1   18.37    3.31
  -6   6   1   26.75    0.83
   6  -6  -1   26.70    0.83
  -7   5   1  186.82   10.59
   7  -5  -1  185.13   10.26
  -8   4   1   80.05    3.14
   8  -4  -1   80.25    3.14
  -9   3   1  454.79   30.46
  -9   3   1  429.22   30.95
   9  -3  -1  432.69   29.46
 -10   2   1   28.81    1.99
 -10   2   1   30.20    1.99
 -11   1   1    0.56    0.66
 -11   1   1    0.85    0.66
  11  -1  -1    0.66    0.66
 -12   0   1   49.33    5.79
 -12   0   1   49.73    5.79
  12   0  -1   51.76    5.79
 -13  -1   1   35.64    4.30
 -13  -1   1   37.33    4.30
  13   1  -1   37.38    4.30
 -14  -2   1  599.77   31.61
 -14  -2   1  618.94   31.45
  14   2  -1  612.49   30.46
 -15  -3   1   17.38    2.65
 -15  -3   1   18.78    2.98
  15   3  -1   19.62    2.98
 -16  -4   1  221.70   16.39
  16   4  -1  226.37   16.06
  17   5  -1    9.17    1.16
 -18  -6   1   95.00    7.12
  18   6  -1   94.20    6.79
 -19  -7   1   20.94    2.32
  19   7  -1   21.38    2.32
 -20  -8   1    0.48    1.49
  20   8  -1    0.78    1.49
 -21  -9   1    3.62    1.99
 -22 -10   1    4.89    1.82
 -23 -11   1    5.75    2.15
 -24 -12   1    0.35    2.32
  -4 -18  -1    8.06    2.98
  -3 -17  -1   13.30    2.81
  -2 -16  -1   10.49    2.81
  -1 -15  -1   22.07    2.81
   0 -14  -1    0.09    2.15
   1 -13  -1   15.85    2.32
   1 -13  -1   15.40    1.49
   2 -12  -1  173.38    7.12
   2 -12  -1  174.08    7.78
  -3  11   1    1.86    1.49
   3 -11  -1    1.36    1.82
   3 -11  -1    1.61    1.32
  -4  10   1    7.72    1.32
   4 -10  -1    7.47    1.16
  -5   9   1    6.83    1.99
   5  -9  -1    6.33    1.66
  -6   8   1  137.51    7.28
   6  -8  -1  138.41    6.95
  -7   7   1  145.00    9.77
   7  -7  -1  146.24    9.43
  -8   6   1   97.19    7.94
   8  -6  -1   99.57    7.78
  -9   5   1  154.23   10.10
   9  -5  -1  139.04    9.77
 -10   4   1   15.33    2.81
 -10   4   1   14.78    2.98
  10  -4  -1   15.08    2.81
 -11   3   1    7.93    0.66
 -11   3   1    7.48    0.83
  11  -3  -1    7.98    0.66
 -12   2   1  162.91    4.63
 -12   2   1  163.65    4.63
  12  -2  -1  164.35    4.47
 -13   1   1   34.75    3.97
 -13   1   1   35.05    3.97
  13  -1  -1   36.04    3.97
 -14   0   1  395.35   15.72
 -14   0   1  392.02   15.72
  14   0  -1  395.55   15.23
 -15  -1   1   23.06    3.14
 -15  -1   1   20.98    2.81
  15   1  -1   23.16    3.14
 -16  -2   1  628.14   46.68
 -16  -2   1  625.75   46.18
  16   2  -1  628.83   44.69
 -17  -3   1    6.86    1.16
  17   3  -1    6.56    1.66
  18   4  -1   11.98    2.32
 -19  -5   1   13.66    1.99
  19   5  -1   14.85    2.15
 -20  -6   1   10.76    1.82
  20   6  -1   12.25    1.99
 -21  -7   1   12.97    2.32
  21   7  -1   15.00    2.48
 -22  -8   1    0.00    1.49
 -23  -9   1    5.05    1.99
 -24 -10   1    0.93    2.15
 -25 -11   1    8.54    2.32
  -2 -18  -1   13.38    2.98
  -1 -17  -1    0.40    2.65
   0 -16  -1    0.33    2.48
   1 -15  -1   40.11    3.48
   2 -14  -1    9.75    2.32
   3 -13  -1    7.02    2.15
   3 -13  -1    6.32    1.32
  -4  12   1   84.21    3.31
   4 -12  -1   83.62    2.98
   4 -12  -1   85.45    3.64
  -5  11   1   21.97    3.48
   5 -11  -1   19.78    2.98
  -6  10   1   13.76    1.32
   6 -10  -1   14.40    1.16
  -7   9   1  163.57   10.26
   7  -9  -1  166.60    9.93
  -8   8   1    1.39    1.32
   8  -8  -1    1.34    1.16
  -9   7   1  196.03   12.08
   9  -7  -1  195.88   11.75
 -10   6   1   73.91    4.14
  10  -6  -1   74.61    4.14
 -11   5   1   15.87    1.82
  11  -5  -1   16.71    1.99
 -12   4   1   99.09    5.13
 -12   4   1   98.40    4.97
  12  -4  -1   99.94    4.97
 -13   3   1   47.10    4.14
 -13   3   1   45.61    3.97
 -14   2   1  609.41   31.45
 -14   2   1  607.57   31.95
  14  -2  -1  614.62   30.46
 -15   1   1   20.68    2.98
 -15   1   1   22.92    2.98
  15  -1  -1   22.72    3.14
 -16   0   1  562.97   42.54
 -16   0   1  548.87   42.04
  16   0  -1  561.83   40.72
 -17  -1   1   16.66    2.15
 -17  -1   1   15.81    1.82
  17   1  -1   16.21    2.15
 -18  -2   1   78.30    8.77
 -18  -2   1   75.22    8.61
  18   2  -1   78.00    8.61
 -19  -3   1   13.15    1.99
  19   3  -1   12.85    2.15
 -20  -4   1   -0.15    1.16
  20   4  -1   -0.15    1.32
 -21  -5   1   17.06    1.82
  21   5  -1   18.00    1.99
 -22  -6   1    5.81    1.49
  22   6  -1    5.61    1.49
 -23  -7   1   13.45    2.15
  23   7  -1   13.15    2.15
 -24  -8   1    2.46    1.82
 -25  -9   1    9.00    2.15
 -26 -10   1    5.12    2.32
   0 -18  -1    1.97    2.98
   1 -17  -1    1.44    2.65
   2 -16  -1   32.14    3.31
   3 -15  -1    0.53    2.48
   4 -14  -1    1.80    2.15
   4 -14  -1    2.79    1.32
  -5  13   1    4.69    1.49
   5 -13  -1    4.30    1.16
   5 -13  -1    4.94    1.99
  -6  12   1   11.67    1.99
   6 -12  -1   11.38    1.66
  -7  11   1   58.22    4.30
   7 -11  -1   58.27    3.81
  -8  10   1   61.41    3.14
   8 -10  -1   62.50    2.98
  -9   9   1  233.02   12.91
   9  -9  -1  233.86   12.58
 -10   8   1    2.57    1.32
  10  -8  -1    2.07    1.49
 -11   7   1    8.57    1.32
  11  -7  -1    8.42    1.32
 -12   6   1   86.90    2.65
  12  -6  -1   88.10    2.81
 -13   5   1    2.40    1.49
 -13   5   1    2.20    1.32
  13  -5  -1    2.45    1.49
 -14   4   1  157.59    7.28
 -14   4   1  158.23    7.45
 -15   3   1   16.54    2.98
 -15   3   1   17.78    2.98
  15  -3  -1   19.02    2.98
 -16   2   1  636.13   46.51
 -16   2   1  611.60   45.85
  16  -2  -1  630.27   44.52
 -17   1   1   15.32    1.99
 -17   1   1   16.91    2.15
  17  -1  -1   16.21    2.15
 -18   0   1  101.35    7.78
 -18   0   1   99.76    7.78
  18   0  -1  101.60    7.61
 -19  -1   1   45.34    3.48
 -19  -1   1   42.96    3.14
  19   1  -1   44.80    3.48
 -20  -2   1    1.65    1.32
  20   2  -1    1.85    1.49
 -21  -3   1    2.28    1.49
  21   3  -1    2.28    1.49
 -22  -4   1    5.50    1.32
  22   4  -1    5.75    1.49
 -23  -5   1   23.98    2.15
  23   5  -1   25.02    2.32
 -24  -6   1    1.04    1.82
  24   6  -1    0.05    1.66
 -25  -7   1   19.70    2.81
 -26  -8   1    5.05    2.15
 -27  -9   1    2.10    2.32
   2 -18  -1   10.05    3.14
   3 -17  -1    0.68    2.81
   4 -16  -1   17.40    2.98
   5 -15  -1    5.08    2.65
  -6  14   1    1.20    1.66
   6 -14  -1    0.80    2.15
   6 -14  -1    1.35    1.49
  -7  13   1    8.51    1.99
   7 -13  -1    8.66    1.66
  -8  12   1    6.74    1.49
   8 -12  -1    7.33    1.49
  -9  11   1   55.55    4.30
   9 -11  -1   56.99    4.14
 -10  10   1   49.58    3.14
  10 -10  -1   50.23    2.98
 -11   9   1   32.06    2.48
  11  -9  -1   32.11    2.48
 -12   8   1   48.29    1.66
  12  -8  -1   48.74    1.82
 -13   7   1   19.69    2.48
  13  -7  -1   22.07    2.81
 -14   6   1  273.03   12.08
  14  -6  -1  272.98   11.75
 -15   5   1    5.61    1.66
 -15   5   1    6.70    1.99
  15  -5  -1    5.26    1.66
 -16   4   1  216.94   15.89
 -16   4   1  225.62   16.22
 -17   3   1    6.71    1.66
 -17   3   1    6.91    1.49
  17  -3  -1    6.17    1.66
 -18   2   1   76.31    8.44
 -18   2   1   74.77    8.61
  18  -2  -1   76.31    8.44
 -19   1   1   43.50    3.31
 -19   1   1   43.90    3.31
  19  -1  -1   44.80    3.48
 -20   0   1   24.65    1.99
 -20   0   1   24.80    2.15
  20   0  -1   24.65    2.32
 -21  -1   1   48.51    3.31
  21   1  -1   48.11    3.31
 -22  -2   1    2.16    1.49
  22   2  -1    1.07    1.32
 -23  -3   1    2.00    1.49
  23   3  -1    1.96    1.66
 -24  -4   1   15.60    1.99
  24   4  -1   15.65    2.15
 -25  -5   1   23.92    2.65
  25   5  -1   24.86    2.98
 -26  -6   1   12.95    2.15
  26   6  -1   12.55    2.15
 -27  -7   1    4.23    2.48
 -28  -8   1   13.17    2.65
   4 -18  -1    6.11    3.14
   5 -17  -1    0.75    2.81
   6 -16  -1    0.65    2.65
  -7  15   1   23.90    2.65
   7 -15  -1   23.61    3.14
   7 -15  -1   24.15    2.48
  -8  14   1    7.32    1.99
   8 -14  -1    7.72    1.82
  -9  13   1   13.43    1.82
   9 -13  -1   13.97    1.66
 -10  12   1   -0.06    1.49
  10 -12  -1    0.69    1.49
 -11  11   1    1.56    1.66
  11 -11  -1    0.91    1.49
 -12  10   1    9.83    1.49
  12 -10  -1   10.38    1.49
 -13   9   1   22.96    2.81
  13  -9  -1   23.01    2.81
 -14   8   1   99.87    6.29
  14  -8  -1   96.79    6.12
 -15   7   1    3.88    1.82
  15  -7  -1    4.72    1.99
 -16   6   1  387.52   22.84
  16  -6  -1  389.06   22.18
 -17   5   1   10.06    1.32
 -17   5   1    9.67    1.66
 -18   4   1   10.14    2.15
 -18   4   1   11.38    1.99
 -19   3   1   12.95    2.15
 -19   3   1   13.35    1.99
  19  -3  -1   12.50    2.15
 -20   2   1    2.10    1.49
 -20   2   1    1.16    1.49
  20  -2  -1    1.41    1.49
 -21   1   1   47.61    3.14
 -21   1   1   47.41    3.14
  21  -1  -1   49.10    3.31
 -22   0   1   20.58    1.32
  22   0  -1   20.98    1.66
 -23  -1   1   52.93    4.30
  23   1  -1   53.33    4.30
 -24  -2   1    1.44    1.66
  24   2  -1    2.13    1.99
 -25  -3   1   11.04    2.48
  25   3  -1   12.38    2.81
 -26  -4   1    3.66    1.82
  26   4  -1    3.81    1.99
 -27  -5   1    2.71    2.15
  27   5  -1    2.21    2.15
 -28  -6   1   14.43    2.65
 -29  -7   1    0.14    2.15
   6 -18  -1   -0.71    2.81
   7 -17  -1    7.47    3.14
  -8  16   1    6.53    2.32
   8 -16  -1    6.58    2.65
  -9  15   1   31.89    3.14
   9 -15  -1   30.89    3.48
   9 -15  -1   32.33    2.81
 -10  14   1    4.86    1.99
  10 -14  -1    4.61    1.82
 -11  13   1   -0.17    1.82
  11 -13  -1    0.23    1.66
 -12  12   1   51.86    2.32
  12 -12  -1   53.35    2.32
 -13  11   1    4.96    2.15
  13 -11  -1    5.60    2.15
 -14  10   1  167.19    8.11
  14 -10  -1  163.07    7.94
 -15   9   1    3.25    1.66
  15  -9  -1    2.61    1.82
 -16   8   1  137.68   10.10
  16  -8  -1  136.83    9.93
 -17   7   1    8.67    1.66
  17  -7  -1    8.52    1.99
 -18   6   1   92.76    6.62
  18  -6  -1   92.86    6.62
 -19   5   1   13.90    2.15
 -19   5   1   14.20    1.99
  19  -5  -1   14.35    2.32
 -20   4   1   -0.25    0.99
 -20   4   1    0.10    1.49
  20  -4  -1   -0.35    1.32
 -21   3   1    1.98    1.32
 -21   3   1    1.63    1.49
  21  -3  -1    0.93    1.49
 -22   2   1    2.11    1.49
 -22   2   1    2.21    1.32
  22  -2  -1    2.01    1.66
 -23   1   1   52.98    4.30
  23  -1  -1   53.97    4.47
 -24   0   1   13.08    1.66
  24   0  -1   13.68    1.99
 -25  -1   1   45.54    4.63
  25   1  -1   44.89    4.80
 -26  -2   1   13.43    1.99
  26   2  -1   13.63    2.32
 -27  -3   1    1.58    1.99
  27   3  -1    1.09    2.15
 -28  -4   1   16.47    2.65
  28   4  -1   17.42    2.98
 -29  -5   1    0.06    2.15
  29   5  -1    0.71    2.15
 -30  -6   1    0.23    2.15
   9 -17  -1    4.84    2.98
 -10  16   1    1.42    2.15
  10 -16  -1    1.81    2.65
 -11  15   1    5.87    2.32
  11 -15  -1    6.02    2.15
 -12  14   1    5.75    1.99
  12 -14  -1    5.46    1.82
 -13  13   1    0.14    1.82
  13 -13  -1   -0.01    1.82
 -14  12   1    5.45    1.99
  14 -12  -1    4.75    1.82
 -15  11   1    0.99    1.82
  15 -11  -1    2.08    1.99
 -16  10   1  213.50   10.59
  16 -10  -1  212.31   10.26
 -17   9   1   11.92    1.82
  17  -9  -1   10.93    1.82
 -18   8   1    6.79    2.15
  18  -8  -1    6.74    2.32
 -19   7   1   21.88    2.48
  19  -7  -1   21.63    2.81
 -20   6   1   10.61    1.82
  20  -6  -1   11.26    2.15
 -21   5   1   18.00    2.15
 -21   5   1   17.95    1.82
  21  -5  -1   17.50    1.99
 -22   4   1    6.05    1.66
 -22   4   1    5.85    1.32
  22  -4  -1    6.25    1.49
 -23   3   1    2.10    1.66
 -23   3   1    1.81    1.32
  23  -3  -1    1.96    1.66
 -24   2   1    1.39    1.66
  24  -2  -1    1.69    1.99
 -25   1   1   42.56    4.30
  25  -1  -1   45.84    4.63
 -26   0   1   16.76    2.65
  26   0  -1   17.06    2.98
 -27  -1   1    5.23    2.32
  27   1  -1    4.73    2.48
 -28  -2   1   27.21    3.31
  28   2  -1   27.31    3.48
 -29  -3   1    0.78    1.99
  29   3  -1    0.19    2.32
 -30  -4   1    0.15    1.99
  30   4  -1   -0.10    2.32
 -11  17   1    0.28    2.32
  11 -17  -1   -0.07    2.98
 -12  16   1    4.83    2.32
  12 -16  -1    4.13    1.99
 -13  15   1    5.06    2.48
  13 -15  -1    5.41    2.32
 -14  14   1   42.57    2.98
  14 -14  -1   40.53    2.65
 -15  13   1    0.01    1.99
  15 -13  -1   -0.54    1.82
 -16  12   1   19.55    2.65
  16 -12  -1   18.06    2.32
 -17  11   1    0.75    1.66
  17 -11  -1    1.20    1.82
 -18  10   1   55.68    3.97
  18 -10  -1   55.68    4.14
 -19   9   1    8.36    2.32
  19  -9  -1    5.93    2.15
 -20   8   1    1.02    1.49
  20  -8  -1    0.48    1.82
 -21   7   1   13.66    2.48
  21  -7  -1   14.41    2.81
 -22   6   1    5.56    1.49
  22  -6  -1    5.76    1.66
 -23   5   1   24.18    2.15
  23  -5  -1   23.88    2.32
 -24   4   1   16.15    2.15
 -24   4   1   15.95    2.15
  24  -4  -1   16.05    2.32
 -25   3   1   11.99    2.65
  25  -3  -1   12.28    2.98
 -26   2   1   12.44    1.82
  26  -2  -1   13.48    2.32
 -27   1   1    4.44    2.15
  27  -1  -1    3.99    2.48
 -28   0   1   32.51    3.81
  28   0  -1   33.60    4.14
 -29  -1   1    0.88    1.99
  29   1  -1    1.48    2.32
 -30  -2   1    2.40    2.15
  30   2  -1    2.80    2.48
 -31  -3   1    1.24    2.32
  31   3  -1   -0.35    2.48
 -14  16   1    8.99    2.65
  14 -16  -1    8.25    2.32
 -15  15   1    0.30    2.15
  15 -15  -1   -0.09    1.99
 -16  14   1   51.47    3.31
  16 -14  -1   49.03    2.98
 -17  13   1    5.95    2.15
  17 -13  -1    5.75    2.15
 -18  12   1    1.77    2.15
  18 -12  -1    0.98    2.15
 -19  11   1    6.83    2.32
  19 -11  -1    4.70    1.99
 -20  10   1    8.73    2.15
  20 -10  -1    8.09    2.15
 -21   9   1    3.12    1.99
  21  -9  -1    4.86    2.32
 -22   8   1    0.15    1.49
  22  -8  -1    0.75    1.99
 -23   7   1   12.26    1.99
  23  -7  -1   14.09    2.48
 -24   6   1   -0.45    1.49
  24  -6  -1    0.49    1.82
 -25   5   1   24.22    2.81
  25  -5  -1   24.41    2.98
 -26   4   1    4.06    1.82
  26  -4  -1    3.61    1.99
 -27   3   1    1.58    1.99
  27  -3  -1    0.89    2.15
 -28   2   1   26.21    3.14
  28  -2  -1   26.41    3.48
 -29   1   1    1.23    1.99
  29  -1  -1    0.93    2.15
 -30   0   1    1.38    1.99
  30   0  -1    0.24    2.32
 -31  -1   1    2.51    2.32
  31   1  -1    1.52    2.48
 -16  16   1   14.10    2.98
 -17  15   1    1.14    2.32
  17 -15  -1   -0.30    2.15
 -18  14   1    8.04    2.48
  18 -14  -1    6.80    2.32
 -19  13   1    2.53    2.32
  19 -13  -1    1.24    2.15
 -20  12   1    1.08    1.99
  20 -12  -1   -0.12    2.15
 -21  11   1    5.21    2.15
  21 -11  -1    3.23    2.15
 -22  10   1    6.77    1.99
  22 -10  -1    4.89    2.15
 -23   9   1    4.85    1.99
  23  -9  -1    4.65    2.15
 -24   8   1    2.31    1.66
  24  -8  -1    3.35    1.99
 -25   7   1   17.81    2.48
  25  -7  -1   19.60    2.81
 -26   6   1   11.55    1.99
  26  -6  -1   11.65    2.15
 -27   5   1    1.07    1.82
  27  -5  -1    2.66    2.32
 -28   4   1   16.57    2.65
  28  -4  -1   16.18    2.98
 -29   3   1    0.09    1.99
  29  -3  -1   -0.11    2.15
 -30   2   1    2.35    1.99
  30  -2  -1    2.55    2.48
 -31   1   1    1.12    2.15
  31  -1  -1    1.27    2.48
 -20  14   1    1.45    2.32
  20 -14  -1   -0.09    2.32
 -21  13   1    2.23    2.32
  21 -13  -1    0.15    2.15
 -22  12   1    0.19    1.99
  22 -12  -1   -0.15    2.15
 -23  11   1    6.10    1.99
  23 -11  -1    5.66    2.32
 -24  10   1    0.33    1.82
  24 -10  -1    0.48    2.15
 -25   9   1    9.00    2.15
  25  -9  -1    8.25    2.32
 -26   8   1    3.56    1.66
  26  -8  -1    4.36    1.99
 -27   7   1    1.50    2.15
  27  -7  -1    2.54    2.32
 -28   6   1   13.54    2.48
  28  -6  -1   13.24    2.81
 -29   5   1   -0.24    1.82
  29  -5  -1    0.51    2.32
 -30   4   1   -0.25    1.99
  30  -4  -1    0.20    2.32
 -31   3   1    0.05    2.15
  31  -3  -1    1.04    2.65
 -24  12   1    0.50    1.99
  24 -12  -1    0.15    2.32
 -25  11   1   10.08    2.48
  25 -11  -1    9.83    2.65
 -26  10   1    3.88    1.99
  26 -10  -1    3.68    2.15
 -27   9   1    1.21    1.99
  27  -9  -1    2.50    2.48
 -28   8   1   12.92    2.65
  28  -8  -1   14.22    2.81
 -29   7   1    0.19    1.99
  29  -7  -1    0.53    2.32
 -30   6   1   -0.32    2.15
  30  -6  -1    0.08    2.48
  28  -6   2    1.28    2.32
 -28   6  -2    1.73    2.65
  27  -7   2   14.39    2.98
 -27   7  -2   13.60    3.14
  26  -8   2    3.64    2.32
 -26   8  -2    3.99    2.81
  25  -9   2   10.24    2.65
 -25   9  -2    9.05    2.81
  24 -10   2    0.13    2.15
 -24  10  -2    0.68    2.65
  23 -11   2    1.50    2.32
 -23  11  -2    2.40    2.81
  22 -12   2    3.59    2.65
 -22  12  -2    3.10    2.81
  29  -3   2    5.08    2.81
 -29   3  -2    4.69    2.32
  28  -4   2    4.13    2.32
 -28   4  -2    3.49    1.82
  27  -5   2   32.54    3.81
 -27   5  -2   34.28    3.97
  26  -6   2    0.92    2.15
 -26   6  -2    0.62    2.32
  25  -7   2    6.73    2.32
 -25   7  -2    6.34    2.65
  24  -8   2    0.97    2.15
 -24   8  -2   -0.17    2.32
  23  -9   2    7.26    2.48
 -23   9  -2    8.75    2.98
  22 -10   2    4.23    2.15
 -22  10  -2    4.28    2.65
  21 -11   2    1.43    2.32
 -21  11  -2    1.53    2.48
  20 -12   2    0.65    2.32
 -20  12  -2    0.40    2.48
  19 -13   2    5.46    2.48
  18 -14   2    5.58    2.81
  30   0   2    4.84    2.48
 -30   0  -2    4.09    1.99
  29  -1   2    3.26    2.65
 -29   1  -2    3.45    2.15
  28  -2   2    1.84    2.32
 -28   2  -2    2.64    1.82
  27  -3   2   29.32    3.64
 -27   3  -2   31.06    3.64
  26  -4   2    4.26    1.99
 -26   4  -2    3.66    2.15
 -26   4  -2    4.21    1.66
  25  -5   2   16.36    2.65
 -25   5  -2   17.21    2.98
 -25   5  -2   15.27    1.99
  24  -6   2    4.52    2.15
 -24   6  -2    4.22    2.48
 -24   6  -2    3.87    1.66
  23  -7   2    4.22    2.15
 -23   7  -2    3.48    2.32
  22  -8   2    4.73    2.15
 -22   8  -2    4.73    2.48
  21  -9   2   11.20    2.48
 -21   9  -2   10.55    2.81
  20 -10   2    0.74    2.15
 -20  10  -2    0.24    2.32
  19 -11   2   22.79    2.81
 -19  11  -2   22.54    2.98
  18 -12   2   11.52    2.65
 -18  12  -2   11.17    2.98
  17 -13   2    9.01    2.65
  16 -14   2    0.78    2.32
  15 -15   2    2.55    2.48
  14 -16   2    7.08    2.48
  29   1   2    4.55    2.81
 -29  -1  -2    4.50    2.48
  28   0   2    5.27    2.32
 -28   0  -2    5.61    1.99
  27  -1   2   26.92    3.48
 -27   1  -2   27.06    3.14
  26  -2   2    1.05    1.99
 -26   2  -2    1.60    2.15
 -26   2  -2    1.15    1.66
  25  -3   2   26.86    3.48
 -25   3  -2   26.76    2.98
 -25   3  -2   30.38    3.64
  24  -4   2    1.61    2.15
 -24   4  -2    1.11    2.15
 -24   4  -2    0.52    1.49
  23  -5   2   10.65    2.48
 -23   5  -2    9.26    2.48
 -23   5  -2    7.97    1.49
  22  -6   2   18.41    2.65
 -22   6  -2   18.90    2.15
 -22   6  -2   19.65    2.81
  21  -7   2    3.72    2.15
 -21   7  -2    2.92    2.32
 -21   7  -2    3.82    1.49
  20  -8   2    1.60    1.82
 -20   8  -2    2.15    1.49
 -20   8  -2    1.50    2.15
  19  -9   2   46.33    3.81
 -19   9  -2   46.33    3.97
 -19   9  -2   46.33    3.48
  18 -10   2   14.47    2.65
 -18  10  -2   14.67    2.81
  17 -11   2    7.55    2.81
 -17  11  -2    6.50    2.81
  16 -12   2   18.51    2.65
 -16  12  -2   19.61    2.81
  15 -13   2    7.17    2.15
  14 -14   2    1.13    2.15
  13 -15   2    1.57    2.15
  12 -16   2    5.10    2.15
 -29  -3  -2    4.24    2.32
 -28  -2  -2    2.24    1.99
  27   1   2   29.15    3.64
 -27  -1  -2   27.26    3.31
  26   0   2    5.41    1.99
 -26   0  -2    5.41    1.82
  25  -1   2   14.52    2.48
 -25   1  -2   14.82    2.48
 -25   1  -2   14.22    2.15
  24  -2   2    8.24    2.15
 -24   2  -2    7.99    2.15
 -24   2  -2    8.04    1.66
  23  -3   2   25.88    2.98
 -23   3  -2   26.33    2.65
 -23   3  -2   28.07    3.31
  22  -4   2   14.73    2.65
 -22   4  -2   14.43    2.65
 -22   4  -2   13.24    1.99
  21  -5   2   13.87    2.32
 -21   5  -2   13.52    1.66
 -21   5  -2   13.82    2.32
  20  -6   2    0.83    1.82
 -20   6  -2    0.38    1.99
 -20   6  -2    0.97    1.32
  19  -7   2   39.85    3.48
 -19   7  -2   40.75    2.98
 -19   7  -2   40.70    3.64
  18  -8   2   17.77    2.98
 -18   8  -2   17.57    2.48
 -18   8  -2   17.77    3.14
  17  -9   2    6.82    2.48
 -17   9  -2    7.52    2.65
 -17   9  -2    6.87    1.99
  16 -10   2    9.12    2.32
 -16  10  -2    9.17    2.48
 -16  10  -2    8.98    1.99
  15 -11   2   11.51    2.15
 -15  11  -2   11.60    2.15
 -15  11  -2   13.00    1.99
  14 -12   2   25.51    2.98
 -14  12  -2   24.66    2.98
  13 -13   2    0.52    2.15
  12 -14   2    1.00    2.15
  11 -15   2    1.08    2.15
  10 -16   2   -0.07    1.99
   9 -17   2   11.83    2.48
 -28  -4  -2    3.09    2.15
 -27  -3  -2   30.91    3.64
  26   2   2    1.50    1.99
 -26  -2  -2    1.15    1.66
  25   1   2   16.31    2.81
 -25  -1  -2   14.37    2.32
  24   0   2    3.08    1.82
 -24   0  -2    3.33    1.49
 -24   0  -2    3.43    1.66
  23  -1   2   10.25    2.15
 -23   1  -2    9.80    1.99
 -23   1  -2   10.15    1.82
  22  -2   2   44.12    3.14
 -22   2  -2   44.57    3.14
 -22   2  -2   42.73    2.65
  21  -3   2   21.57    2.48
 -21   3  -2   23.45    2.65
 -21   3  -2   21.76    2.15
  20  -4   2    2.30    1.66
 -20   4  -2    2.20    0.99
 -20   4  -2    2.00    1.66
  19  -5   2   77.13    4.47
 -19   5  -2   76.63    3.97
 -19   5  -2   79.31    4.80
  18  -6   2   39.25    3.64
 -18   6  -2   38.50    3.64
 -18   6  -2   40.39    3.31
  17  -7   2   28.51    4.63
 -17   7  -2   27.77    4.63
 -17   7  -2   29.06    4.14
  16  -8   2   25.80    2.81
 -16   8  -2   25.95    2.32
 -16   8  -2   25.80    2.81
  15  -9   2    1.74    1.66
 -15   9  -2    1.89    1.32
 -15   9  -2    2.04    1.82
  14 -10   2   12.57    2.15
 -14  10  -2   12.87    1.82
 -14  10  -2   12.57    2.32
  13 -11   2    0.72    1.99
 -13  11  -2    1.02    1.99
 -13  11  -2    1.26    1.66
  12 -12   2   18.96    2.65
 -12  12  -2   17.92    2.48
 -12  12  -2   18.31    2.15
  11 -13   2    4.41    2.32
  10 -14   2    0.24    1.99
   9 -15   2   19.20    2.48
   8 -16   2    0.23    1.99
   7 -17   2   23.60    2.32
 -28  -6  -2    1.13    2.15
 -27  -5  -2   32.74    3.48
 -26  -4  -2    4.41    1.99
 -25  -3  -2   28.40    3.31
  24   2   2    7.54    1.99
 -24  -2  -2    8.48    1.82
  23   1   2    9.20    1.82
 -23  -1  -2    9.20    1.66
 -23  -1  -2   10.69    1.99
  22   0   2    2.82    1.82
 -22   0  -2    2.72    1.82
 -22   0  -2    2.17    1.49
  21  -1   2   16.16    1.99
 -21   1  -2   17.36    1.82
 -21   1  -2   17.41    2.15
  20  -2   2    5.02    1.66
 -20   2  -2    4.97    1.66
 -20   2  -2    4.92    1.16
  19  -3   2   73.16    4.63
 -19   3  -2   72.57    4.63
 -19   3  -2   71.58    4.30
  18  -4   2   46.55    5.13
 -18   4  -2   45.51    5.13
 -18   4  -2   39.45    4.63
  17  -5   2   39.53    5.79
 -17   5  -2   38.39    5.96
 -17   5  -2   38.14    5.46
  16  -6   2   45.26    5.13
 -16   6  -2   46.55    4.80
 -16   6  -2   46.05    5.46
  15  -7   2   24.01    2.32
 -15   7  -2   24.46    2.48
 -15   7  -2   24.66    1.99
  14  -8   2   33.63    3.31
 -14   8  -2   32.38    3.31
 -14   8  -2   33.78    2.98
  13  -9   2   13.06    1.82
 -13   9  -2   12.81    1.82
 -13   9  -2   12.51    1.49
  12 -10   2    5.14    2.15
 -12  10  -2    5.39    2.15
 -12  10  -2    6.13    1.82
  11 -11   2    8.30    2.48
 -11  11  -2    9.64    2.65
 -11  11  -2   10.93    2.32
  10 -12   2    0.01    1.82
 -10  12  -2   -0.14    1.99
 -10  12  -2    0.21    1.49
   9 -13   2   60.50    4.30
  -9  13  -2   60.15    4.14
   8 -14   2    0.19    1.82
   7 -15   2   34.49    2.48
   6 -16   2    0.46    1.99
   5 -17   2    1.29    2.15
 -27  -7  -2   14.05    2.81
 -26  -6  -2    0.62    1.99
 -25  -5  -2   17.51    2.48
 -24  -4  -2    1.46    1.82
  23   3   2   28.31    3.31
 -23  -3  -2   26.87    2.98
  22   2   2   45.17    3.14
 -22  -2  -2   43.23    2.81
 -22  -2  -2   43.33    2.81
  21   1   2   17.95    2.15
 -21  -1  -2   17.55    1.82
 -21  -1  -2   17.70    1.99
  20   0   2   31.19    1.99
 -20   0  -2   30.69    1.66
 -20   0  -2   31.44    1.82
  19  -1   2  112.78    6.29
 -19   1  -2  113.18    6.29
 -19   1  -2  110.94    6.46
  18  -2   2   54.54    3.97
 -18   2  -2   52.45    3.81
 -18   2  -2   53.84    4.14
  17  -3   2   74.51    8.11
 -17   3  -2   67.46    7.94
 -17   3  -2   78.68    8.44
  16  -4   2   88.04    7.28
 -16   4  -2   88.18    7.28
 -16   4  -2   85.80    6.95
  15  -5   2   44.13    3.31
 -15   5  -2   44.43    2.81
 -15   5  -2   43.58    3.31
  14  -6   2   69.03    3.48
 -14   6  -2   71.86    3.31
 -14   6  -2   68.78    3.64
  13  -7   2    1.42    0.50
 -13   7  -2    1.87    1.49
 -13   7  -2    1.87    1.16
  12  -8   2   48.97    3.14
 -12   8  -2   51.30    2.98
 -12   8  -2   50.46    3.48
  11  -9   2    1.01    1.49
 -11   9  -2    1.35    1.49
 -11   9  -2    1.20    1.16
  10 -10   2    0.13    1.49
 -10  10  -2   -0.21    1.49
 -10  10  -2    0.53    1.32
   9 -11   2  134.75    6.79
  -9  11  -2  136.19    6.95
  -9  11  -2  136.04    6.62
   8 -12   2    0.60    1.82
  -8  12  -2    0.51    1.49
   7 -13   2  111.30    3.97
   6 -14   2    3.69    1.99
   5 -15   2    1.11    1.99
   4 -16   2    2.19    1.82
   3 -17   2    0.84    1.99
 -26  -8  -2    4.04    2.15
 -25  -7  -2    6.68    2.15
 -24  -6  -2    5.12    2.15
 -23  -5  -2    9.26    2.15
 -22  -4  -2   14.88    2.48
  21   3   2   22.01    2.32
 -21  -3  -2   22.11    2.15
 -21  -3  -2   22.46    2.32
  20   2   2    5.36    1.49
 -20  -2  -2    4.52    1.32
 -20  -2  -2    4.87    1.32
  19   1   2  111.99    6.29
 -19  -1  -2  112.78    6.46
 -19  -1  -2  113.43    6.46
  18   0   2   23.55    4.30
 -18   0  -2   24.05    4.30
 -18   0  -2   24.20    4.30
  17  -1   2   41.10    5.96
 -17   1  -2   42.09    5.96
 -17   1  -2   40.45    5.96
  16  -2   2   38.77    4.97
 -16   2  -2   38.62    4.80
 -16   2  -2   40.56    5.13
  15  -3   2   59.86    3.48
 -15   3  -2   59.52    3.64
  14  -4   2   80.17    5.30
 -14   4  -2   79.48    5.30
 -14   4  -2   79.33    4.97
  13  -5   2    7.32    1.99
 -13   5  -2    7.22    1.82
 -13   5  -2    8.07    1.49
 -12   6  -2   33.11    2.81
 -12   6  -2   30.48    2.98
 -11   7  -2    7.37    2.15
  10  -8   2    9.60    1.82
 -10   8  -2   10.44    1.66
   9  -9   2  116.37    8.44
  -9   9  -2  120.64    8.44
   8 -10   2    2.88    1.66
  -8  10  -2    3.23    1.66
  -8  10  -2    2.48    1.16
   7 -11   2  152.86    7.28
  -7  11  -2  151.47    7.28
  -7  11  -2  152.86    7.61
   6 -12   2    5.77    1.99
  -6  12  -2    5.37    1.66
   5 -13   2    1.53    1.82
   4 -14   2   10.65    2.32
   3 -15   2    0.17    1.82
   2 -16   2    0.78    1.82
   0 -18   2   12.15    2.98
 -25  -9  -2    9.34    2.32
 -24  -8  -2   -0.02    1.82
 -23  -7  -2    3.23    1.82
 -22  -6  -2   18.75    2.32
 -21  -5  -2   13.28    1.99
  20   4   2    2.30    1.16
 -20  -4  -2    2.40    1.16
 -20  -4  -2    2.55    1.32
  19   3   2   75.10    4.80
 -19  -3  -2   74.06    4.80
 -19  -3  -2   74.56    4.97
  18   2   2   54.44    3.97
 -18  -2  -2   53.29    3.97
 -18  -2  -2   55.33    3.97
  17   1   2   41.15    5.79
 -17  -1  -2   41.40    5.79
 -17  -1  -2   39.36    5.79
  16   0   2  129.25   10.76
 -16   0  -2  125.58   11.09
 -16   0  -2  125.98   10.92
  15  -1   2   29.48    1.99
 -15   1  -2   29.28    1.66
 -15   1  -2   29.18    1.82
  14  -2   2   59.04    1.49
 -14   2  -2   58.89    1.16
 -14   2  -2   58.60    1.32
  13  -3   2    4.73    1.16
 -13   3  -2    4.58    0.99
 -13   3  -2    4.53    0.50
  12  -4   2   71.60    2.81
 -12   4  -2   70.86    2.81
 -12   4  -2   72.69    2.48
  11  -5   2   58.05    5.96
 -11   5  -2   61.13    5.79
 -11   5  -2   58.30    6.12
  10  -6   2    0.28    0.66
 -10   6  -2    0.08    1.32
 -10   6  -2    0.23    0.83
   9  -7   2  369.86   22.51
  -9   7  -2  379.34   23.01
   8  -8   2   20.05    1.82
  -8   8  -2   20.55    1.49
  -8   8  -2   20.30    1.66
   7  -9   2  332.22   13.90
  -7   9  -2  337.09   14.23
  -7   9  -2  334.31   14.57
   6 -10   2    4.15    1.82
  -6  10  -2    4.55    1.66
  -6  10  -2    4.85    1.99
   5 -11   2    0.71    1.32
  -5  11  -2    0.61    1.66
  -5  11  -2    0.46    1.16
   4 -12   2    3.38    1.49
   3 -13   2    4.43    1.49
   2 -14   2   44.91    2.98
   1 -15   2    1.53    1.66
   0 -16   2    6.78    1.82
  -1 -17   2    0.09    2.48
  -2 -18   2    3.72    2.98
 -24 -10  -2    0.48    2.15
 -23  -9  -2    6.86    2.15
 -22  -8  -2    4.23    1.99
 -21  -7  -2    3.32    1.82
 -20  -6  -2    1.17    1.66
 -19  -5  -2   78.67    4.63
 -19  -5  -2   79.71    4.47
  18   4   2   47.24    5.30
 -18  -4  -2   45.56    5.46
 -18  -4  -2   45.90    5.46
  17   3   2   75.06    8.61
 -17  -3  -2   77.89    8.77
 -17  -3  -2   76.15    8.77
  16   2   2   40.51    4.97
 -16  -2  -2   39.52    5.13
 -16  -2  -2   40.31    5.13
  15   1   2   30.12    1.99
 -15  -1  -2   29.58    1.82
 -15  -1  -2   29.13    1.82
  14   0   2  222.65   13.41
 -14   0  -2  220.96   13.90
 -14   0  -2  219.07   13.74
  13  -1   2    3.73    0.99
 -13   1  -2    3.93    0.66
 -13   1  -2    3.58    0.83
  12  -2   2   32.93    2.15
 -12   2  -2   31.54    1.82
 -12   2  -2   31.94    2.15
  11  -3   2    6.80    1.82
 -11   3  -2    7.40    1.66
  10  -4   2    3.09    0.99
 -10   4  -2    3.48    0.33
 -10   4  -2    3.09    0.99
   9  -5   2  548.22   38.07
  -9   5  -2  551.89   39.72
   8  -6   2    1.44    0.99
  -8   6  -2    0.40    0.33
  -8   6  -2    0.55    0.33
   7  -7   2  602.28   31.61
  -7   7  -2  590.47   33.10
   6  -8   2    0.19    1.16
  -6   8  -2    0.19    0.99
  -6   8  -2    0.19    1.16
   5  -9   2    1.49    1.49
  -5   9  -2    2.03    1.32
  -5   9  -2    1.93    1.49
   4 -10   2   14.69    2.65
  -4  10  -2   14.99    2.81
   3 -11   2    1.48    1.32
   2 -12   2    7.23    1.66
   1 -13   2    0.12    1.49
   0 -14   2   75.71    3.14
  -1 -15   2    0.58    1.66
  -2 -16   2    3.29    1.82
  -2 -16   2    3.44    2.48
  -3 -17   2    4.72    2.65
 -23 -11  -2    1.16    2.15
 -22 -10  -2    4.08    2.15
 -21  -9  -2   10.80    2.32
 -20  -8  -2    2.59    1.82
 -19  -7  -2   39.55    2.98
 -18  -6  -2   39.40    3.14
 -18  -6  -2   39.59    3.48
  17   5   2   38.49    5.63
 -17  -5  -2   39.88    5.96
 -17  -5  -2   42.11    5.79
  16   4   2   91.91    7.78
 -16  -4  -2   90.62    8.11
 -16  -4  -2   91.36    7.94
  15   3   2   59.96    3.14
 -15  -3  -2   58.32    3.31
 -15  -3  -2   59.62    3.14
  14   2   2   59.09    1.32
 -14  -2  -2   59.19    1.32
  13   1   2    3.53    0.83
 -13  -1  -2    3.83    0.66
 -13  -1  -2    3.73    0.83
  12   0   2  286.34   10.43
 -12   0  -2  285.84   10.76
 -12   0  -2  286.44   10.59
  11  -1   2   18.24    3.64
 -11   1  -2   16.90    3.48
 -11   1  -2   18.10    3.64
  10  -2   2    0.34    0.83
 -10   2  -2    0.69    0.33
 -10   2  -2    0.44    0.83
   9  -3   2  456.23   34.76
  -9   3  -2  459.51   35.75
  -9   3  -2  460.50   36.41
   8  -4   2    7.79    1.32
  -8   4  -2    8.08    1.32
  -8   4  -2    7.93    0.99
  -7   5  -2  970.18   58.43
   6  -6   2   38.11    3.81
  -6   6  -2   35.87    3.64
  -6   6  -2   36.67    3.97
   5  -7   2    6.44    1.16
  -5   7  -2    6.78    1.32
   4  -8   2    5.57    1.16
  -4   8  -2    6.11    0.83
  -4   8  -2    6.11    1.16
  -3   9  -2    1.06    1.32
  -2  10  -2  123.00    8.61
  -3 -15   2   11.69    2.48
  -4 -16   2    0.94    2.48
  -5 -17   2    4.27    2.32
  -6 -18   2    0.13    2.32
 -22 -12  -2    2.25    2.15
 -21 -11  -2    1.58    2.15
 -20 -10  -2   -0.40    1.82
 -19  -9  -2   44.39    3.14
 -18  -8  -2   16.43    2.48
 -17  -7  -2   28.61    4.47
 -17  -7  -2   28.76    4.14
 -16  -6  -2   45.86    5.13
 -16  -6  -2   47.05    4.97
  15   5   2   44.67    2.81
 -15  -5  -2   42.34    3.14
 -15  -5  -2   45.12    2.81
  14   4   2   79.23    5.13
 -14  -4  -2   83.80    5.46
 -14  -4  -2   80.27    5.46
  13   3   2    5.03    0.83
 -13  -3  -2    4.58    0.83
 -13  -3  -2    4.68    0.83
  12   2   2   32.59    1.99
 -12  -2  -2   32.69    2.15
 -12  -2  -2   33.68    2.32
  11   1   2   16.01    3.31
 -11  -1  -2   16.80    3.31
 -11  -1  -2   18.00    3.48
  10   0   2   26.27    3.31
 -10   0  -2   27.81    3.48
   9  -1   2  761.61   66.70
  -9   1  -2  812.01   69.85
  -9   1  -2  782.66   68.86
   8  -2   2   10.83    2.15
  -8   2  -2   11.03    1.82
  -8   2  -2   12.57    2.15
   7  -3   2 1111.13   68.69
  -7   3  -2 1136.30   70.84
  -7   3  -2 1118.43   72.00
   6  -4   2   70.00    4.30
  -6   4  -2   70.40    4.30
  -5   5  -2    4.24    1.32
  -5   5  -2    4.59    0.99
  -4   6  -2   24.72    2.98
  -4   6  -2   25.07    2.81
  -3   7  -2    2.82    1.49
  -3   7  -2    3.61    1.49
  -2   8  -2   74.94    3.64
  -2   8  -2   76.88    3.48
  -1   9  -2    4.10    1.16
  -1   9  -2    3.75    1.16
   0  10  -2  298.44   13.41
   1  11  -2    6.37    1.49
   2  12  -2    4.85    1.82
   3  13  -2   40.37    2.65
  -4 -14   2    1.04    1.99
   4  14  -2    1.24    1.66
  -5 -15   2    9.09    2.32
  -6 -16   2    5.77    2.15
  -7 -17   2    2.60    2.32
 -20 -12  -2    0.70    2.15
 -19 -11  -2   21.40    2.32
 -18 -10  -2   13.97    2.32
 -17  -9  -2    6.53    2.15
 -16  -8  -2   26.40    2.81
 -16  -8  -2   27.74    2.48
 -15  -7  -2   24.21    1.82
 -15  -7  -2   24.16    2.15
 -14  -6  -2   69.47    3.64
 -14  -6  -2   71.61    3.14
 -13  -5  -2    7.72    1.82
 -13  -5  -2    8.31    1.66
  12   4   2   70.21    2.15
 -12  -4  -2   70.96    2.48
 -12  -4  -2   70.61    2.32
  11   3   2    6.65    1.32
 -11  -3  -2    6.75    1.32
 -11  -3  -2    6.60    1.49
  10   2   2    0.49    0.66
 -10  -2  -2    0.64    0.66
 -10  -2  -2    0.39    0.66
   9   1   2  771.39   71.34
  -9  -1  -2  844.19   74.98
   8   0   2   15.87    2.98
  -8   0  -2   15.72    3.14
  -8   0  -2   15.62    2.98
   7  -1   2 1715.41  111.23
  -7   1  -2 1828.83  116.69
  -7   1  -2 1820.19  115.20
  -6   2  -2   43.89    4.80
  -6   2  -2   44.29    4.97
  -4   4  -2    8.08    0.83
  -3   5  -2    0.86    0.50
  -3   5  -2    0.66    0.66
  -3   5  -2    0.71    0.66
  -2   6  -2  202.91   17.21
  -2   6  -2  205.94   16.88
  -2   6  -2  208.52   16.39
  -1   7  -2    6.96    0.99
  -1   7  -2    6.96    0.99
   0   8  -2   91.97    6.12
   0   8  -2   92.57    6.46
   1   9  -2   10.29    2.48
   2  10  -2   86.64    6.12
   3  11  -2   32.80    3.31
   4  12  -2    5.96    1.49
  -5 -13   2   22.86    2.48
   5  13  -2   23.41    2.32
  -6 -14   2    2.58    1.82
  -6 -14   2    2.58    1.99
   6  14  -2    3.37    1.82
  -7 -15   2    0.67    2.15
  -8 -16   2    4.62    2.15
  -9 -17   2    4.42    2.48
 -19 -13  -2    5.71    2.15
 -18 -12  -2   11.91    2.48
 -17 -11  -2    6.65    2.48
 -16 -10  -2    8.93    2.15
 -15  -9  -2    2.24    1.32
 -15  -9  -2    1.39    1.49
 -14  -8  -2   33.48    2.65
 -14  -8  -2   31.59    2.98
 -13  -7  -2    1.96    1.16
 -13  -7  -2    2.01    1.32
  12   6   2   31.13    2.32
 -12  -6  -2   31.97    2.98
 -12  -6  -2   31.67    2.65
  11   5   2   56.86    5.30
 -11  -5  -2   58.50    5.79
 -11  -5  -2   58.30    5.63
  10   4   2    3.34    0.50
 -10  -4  -2    3.24    0.66
 -10  -4  -2    3.24    0.83
   9   3   2  448.73   34.59
  -9  -3  -2  468.49   36.41
  -9  -3  -2  460.75   36.08
   8   2   2   12.86    1.99
  -8  -2  -2   11.37    2.15
   7   1   2 1775.74  121.00
  -7  -1  -2 1839.45  125.30
  -7  -1  -2 1886.13  127.12
   6   0   2    5.07    1.32
  -6   0  -2    5.52    1.32
  -6   0  -2    4.87    1.16
   5  -1   2   34.81    0.66
  -5   1  -2   34.71    0.50
  -5   1  -2   34.71    0.33
  -3   3  -2  107.95    6.46
  -3   3  -2  111.42    6.29
  -2   4  -2  126.13    5.30
  -1   5  -2   28.60    0.99
   0   6  -2  733.39   37.74
   0   6  -2  718.79   39.56
   1   7  -2    8.02    1.99
   1   7  -2    6.98    1.99
   2   8  -2   31.52    3.81
   3   9  -2   86.61    4.30
   4  10  -2   10.74    2.32
   5  11  -2   46.90    2.98
  -6 -12   2    0.70    1.66
   6  12  -2    0.95    1.49
  -7 -13   2   10.86    1.99
  -7 -13   2    9.86    1.82
   7  13  -2   11.06    1.82
  -8 -14   2    9.79    1.99
  -9 -15   2    6.43    2.15
 -10 -16   2    0.04    2.15
 -11 -17   2    4.52    2.48
 -18 -14  -2    5.38    2.32
 -17 -13  -2    8.07    2.32
 -16 -12  -2   19.11    2.48
 -15 -11  -2   11.46    1.99
 -14 -10  -2   11.68    1.99
 -14 -10  -2   12.77    1.82
 -13  -9  -2   11.97    1.66
 -13  -9  -2   13.11    1.49
 -12  -8  -2   50.85    3.48
 -12  -8  -2   50.41    2.98
 -11  -7  -2   11.09    2.81
 -11  -7  -2   10.85    2.65
  10   6   2    0.33    0.50
 -10  -6  -2    0.33    1.16
 -10  -6  -2   -0.12    0.99
   9   5   2  567.88   42.04
  -9  -5  -2  578.11   44.36
  -9  -5  -2  566.24   43.86
   8   4   2    7.88    0.83
  -8  -4  -2    7.93    1.32
  -8  -4  -2    7.69    1.16
   7   3   2 1105.12   67.04
  -7  -3  -2 1126.57   70.51
   6   2   2   46.02    5.46
  -6  -2  -2   45.78    5.63
  -6  -2  -2   49.95    5.79
   5   1   2   34.86    0.50
  -5  -1  -2   34.76    0.50
  -5  -1  -2   34.81    0.50
   4   0   2  410.51   15.89
  -4   0  -2  407.93   16.39
  -4   0  -2  406.49   16.72
  -3   1  -2   78.73    4.80
  -3   1  -2   78.13    4.80
  -2   2  -2  869.58   83.75
  -2   2  -2  869.48   79.78
  -1   3  -2  433.85   33.27
   1   5  -2    5.47    1.49
   2   6  -2  189.10    6.62
   3   7  -2  137.43    6.46
   4   8  -2    3.80    1.16
   5   9  -2   43.24    2.65
  -6 -10   2   37.01    2.15
   6  10  -2   37.66    2.15
  -7 -11   2    9.92    1.82
  -7 -11   2   10.02    1.66
   7  11  -2   10.67    1.66
  -8 -12   2    2.38    1.66
  -8 -12   2    1.83    1.66
   8  12  -2    1.44    1.32
  -9 -13   2   15.81    1.99
   9  13  -2   16.55    1.82
 -10 -14   2    0.48    1.99
 -11 -15   2   16.39    2.65
 -12 -16   2    8.42    2.32
 -16 -14  -2    0.83    2.15
 -15 -13  -2    7.42    2.15
 -14 -12  -2   24.91    2.81
 -13 -11  -2    0.52    1.66
 -13 -11  -2    1.02    1.82
 -12 -10  -2    4.94    1.99
 -12 -10  -2    6.08    1.82
 -11  -9  -2    1.55    1.32
 -11  -9  -2    1.06    1.32
 -10  -8  -2    9.85    1.66
 -10  -8  -2    9.10    1.49
  -9  -7  -2  376.91   23.83
  -8  -6  -2    2.58    1.32
  -7  -5  -2  983.94   62.40
  -6  -4  -2   71.69    4.80
   5   3   2   10.27    2.32
  -5  -3  -2   10.17    2.65
   4   2   2  139.08   12.25
  -4  -2  -2  135.75   13.08
  -3  -1  -2   77.78    4.97
  -2   0  -2    9.22    0.66
  -2   0  -2    8.92    0.66
  -1   1  -2  187.40   14.73
  -1   1  -2  190.42   15.56
  -1  -3   2 1011.51   76.80
   1   3  -2 1002.92   74.32
   1   3  -2  973.62   77.96
  -2  -4   2   41.42    4.14
   2   4  -2   37.39    3.97
   2   4  -2   40.13    4.14
  -3  -5   2  108.68    6.79
   3   5  -2  107.89    6.95
  -4  -6   2    9.38    1.99
   4   6  -2   10.72    1.82
   4   6  -2   10.57    1.82
  -5  -7   2  175.74    9.60
   5   7  -2  174.94    9.27
  -6  -8   2   56.99    3.81
   6   8  -2   57.29    3.64
  -7  -9   2   40.59    2.98
   7   9  -2   42.33    2.98
  -8 -10   2   43.26    1.99
  -8 -10   2   43.86    1.99
   8  10  -2   42.67    1.99
  -9 -11   2   21.53    2.32
  -9 -11   2   21.58    2.48
   9  11  -2   22.17    2.32
 -10 -12   2   13.50    2.15
  10  12  -2   13.00    1.82
 -11 -13   2   28.01    2.81
 -12 -14   2    7.06    2.15
 -13 -15   2    1.19    2.32
 -14 -16   2    1.90    2.48
 -15 -15  -2    2.79    2.32
 -14 -14  -2    0.33    1.99
 -13 -13  -2    0.72    2.15
 -12 -12  -2   17.52    2.32
 -12 -12  -2   19.06    2.32
 -11 -11  -2    8.35    2.48
 -11 -11  -2   11.08    2.48
 -10 -10  -2    0.03    1.49
  -9  -9  -2  121.14    9.10
  -8  -8  -2   20.80    1.66
  -7  -7  -2  612.76   36.75
  -6  -6  -2   38.80    4.30
  -5  -5  -2    4.74    1.32
  -4  -4  -2   10.71    1.49
  -3  -3  -2  112.32    6.95
  -2  -2  -2  859.40   82.43
  -2  -2  -2  868.98   78.46
   1   1   2  186.65   14.40
  -1  -1  -2  183.22   14.57
  -1  -1  -2  184.96   13.90
   0   0   2   20.18    4.14
   0   0  -2   19.93    3.97
   0   0  -2   19.24    4.14
  -1  -1   2   12.67    0.50
  -2  -2   2  377.60   29.13
   2   2  -2  374.22   29.63
  -3  -3   2 1051.04   59.59
   3   3  -2 1041.36   57.60
   3   3  -2 1038.13   60.25
  -4  -4   2   16.44    2.48
   4   4  -2   16.19    2.48
  -5  -5   2   26.81    1.82
   5   5  -2   26.41    1.82
   5   5  -2   26.51    1.82
  -6  -6   2   23.59    0.83
   6   6  -2   23.93    0.83
  -7  -7   2   86.28    5.79
   7   7  -2   88.26    5.63
  -8  -8   2   97.68    4.14
  -8  -8   2   98.92    4.30
   8   8  -2   98.57    4.14
  -9  -9   2   92.74    5.46
  -9  -9   2   91.15    5.30
   9   9  -2   91.50    5.13
 -10 -10   2    1.60    1.16
 -10 -10   2    2.09    1.32
  10  10  -2    1.45    1.16
 -11 -11   2   21.63    2.65
  11  11  -2   23.02    2.65
 -12 -12   2   64.86    3.81
  12  12  -2   63.97    3.48
 -13 -13   2    2.20    1.82
 -14 -14   2    2.65    2.15
 -15 -15   2    0.06    2.15
 -14 -16  -2    6.49    2.48
 -13 -15  -2    1.57    2.15
 -12 -14  -2   -0.09    1.99
 -11 -13  -2    4.01    2.32
 -11 -13  -2    3.87    2.15
 -10 -12  -2    0.16    1.82
  -9 -11  -2  136.04    6.79
  -8 -10  -2    3.87    1.66
  -7  -9  -2  333.32   14.07
  -6  -8  -2   -0.16    1.16
  -5  -7  -2    6.73    1.16
  -4  -6  -2   25.57    3.14
  -3  -5  -2    0.61    0.66
  -2  -4  -2  141.07    8.61
  -1  -3  -2  426.55   31.61
   0   2   2 2168.83  172.14
   0  -2  -2 2201.21  166.18
   0  -2  -2 2159.35  174.62
   1  -1  -2   14.70    0.99
   1  -1  -2   13.56    1.16
  -2   0   2  409.69   22.01
   2   0  -2  412.47   21.35
   2   0  -2  408.90   22.35
  -3  -1   2  139.04   10.59
   3   1  -2  138.70   10.76
  -4  -2   2    2.18    0.83
   4   2  -2    2.37    0.66
   4   2  -2    2.62    0.83
  -5  -3   2  452.94   33.93
   5   3  -2  451.40   32.77
   5   3  -2  441.91   34.26
  -7  -5   2    6.77    0.66
   7   5  -2    7.16    0.83
  -8  -6   2    4.02    0.83
  -8  -6   2    4.07    0.66
   8   6  -2    4.36    0.83
  -9  -7   2  199.83   12.41
  -9  -7   2  190.40   12.25
   9   7  -2  195.32   11.92
 -10  -8   2    0.25    1.16
 -10  -8   2   -0.25    0.99
  10   8  -2   -0.25    0.99
 -11  -9   2  156.78   10.10
 -11  -9   2  158.92   10.26
  11   9  -2  159.37    9.93
 -12 -10   2   19.33    2.32
  12  10  -2   20.03    2.32
 -13 -11   2    3.85    1.49
  13  11  -2    4.20    1.32
 -14 -12   2   20.93    2.65
 -15 -13   2    1.90    1.99
 -16 -14   2    2.88    2.15
 -17 -15   2    0.53    2.15
 -12 -16  -2    5.10    2.48
 -11 -15  -2    0.29    1.99
 -10 -14  -2    0.29    2.15
  -9 -13  -2   62.43    4.63
  -8 -12  -2    0.85    1.82
  -7 -11  -2  153.75    7.78
  -6 -10  -2    4.60    1.82
  -5  -9  -2    1.83    1.49
  -4  -8  -2    6.41    1.16
  -3  -7  -2    2.67    1.32
  -2  -6  -2  205.79   17.21
   1   5   2   30.83    1.49
  -1  -5  -2   28.95    1.32
   0   4   2   74.03    9.60
   0  -4  -2   75.77    9.10
  -1   3   2 1022.34   77.46
   1  -3  -2  974.72   74.65
  -2   2   2  379.93   29.79
   2  -2  -2  380.77   28.80
   2  -2  -2  374.77   30.29
  -3   1   2  144.26   11.59
   3  -1  -2  143.31   11.09
   3  -1  -2  140.18   11.75
  -4   0   2  269.77   17.21
   4   0  -2  267.09   17.55
   4   0  -2  269.23   16.72
  -5  -1   2   49.37    3.14
   5   1  -2   49.13    3.14
  -6  -2   2   73.16    1.99
   6   2  -2   73.61    1.99
  -8  -4   2  120.74    6.62
   8   4  -2  119.50    6.46
  -9  -5   2   23.88    2.32
   9   5  -2   24.87    2.32
 -10  -6   2   25.43    1.49
 -10  -6   2   26.82    1.82
  10   6  -2   27.52    1.82
 -11  -7   2  233.39   12.91
 -11  -7   2  240.49   13.08
  11   7  -2  239.10   12.58
 -12  -8   2  122.41    6.62
  12   8  -2  122.96    6.29
 -13  -9   2   22.29    2.15
  13   9  -2   22.39    1.99
 -14 -10   2    5.42    1.99
  14  10  -2    5.66    1.99
 -15 -11   2    6.74    1.82
  15  11  -2    6.54    1.49
 -16 -12   2    5.36    1.99
 -17 -13   2    0.64    1.99
 -18 -14   2    9.54    2.15
 -10 -16  -2   -0.32    2.15
  -9 -15  -2   20.10    2.81
  -8 -14  -2    1.09    1.99
  -7 -13  -2  111.35    3.97
  -6 -12  -2    6.07    1.99
  -5 -11  -2    0.41    1.49
  -4 -10  -2   14.74    2.65
  -3  -9  -2    1.31    0.66
  -3  -9  -2    0.96    1.32
  -2  -8  -2   76.68    2.98
  -2  -8  -2   74.84    3.64
  -1  -7  -2    7.01    1.16
  -1  -7  -2    6.66    0.50
   0  -6  -2  750.67   42.37
   0  -6  -2  744.81   44.69
  -1   5   2   10.04    2.48
   1  -5  -2    9.64    2.15
  -2   4   2   40.52    4.30
   2  -4  -2   40.32    3.97
  -3   3   2 1050.09   60.75
   3  -3  -2 1048.46   58.59
   3  -3  -2 1046.52   61.57
  -4   2   2    2.82    0.99
   4  -2  -2    2.67    0.99
   4  -2  -2    2.32    0.83
  -5   1   2   50.12    3.31
   5  -1  -2   49.57    3.31
   5  -1  -2   49.92    3.48
  -6   0   2  470.70   21.02
   6   0  -2  477.65   21.35
  -7  -1   2   45.32    4.30
  -9  -3   2  438.82   28.97
   9   3  -2  440.46   28.14
 -10  -4   2    7.67    0.83
  10   4  -2    7.47    0.99
 -11  -5   2   50.08    3.97
  11   5  -2   49.18    3.81
 -12  -6   2  118.14    8.77
  12   6  -2  114.91    8.44
 -13  -7   2   11.87    1.82
  13   7  -2   13.26    1.82
 -14  -8   2   80.17    6.46
  14   8  -2   81.26    6.29
 -15  -9   2    1.21    1.49
  15   9  -2    1.36    1.32
 -16 -10   2    5.47    1.82
  16  10  -2    5.52    1.66
 -17 -11   2    3.51    1.82
 -18 -12   2   21.13    2.48
 -19 -13   2    0.93    1.99
 -20 -14   2    4.87    2.32
  -8 -16  -2   -0.36    2.32
  -7 -15  -2   34.94    2.65
  -6 -14  -2    3.74    2.15
  -5 -13  -2    1.43    1.82
  -4 -12  -2    2.68    1.66
  -3 -11  -2    0.98    1.49
  -2 -10  -2  121.76    7.28
  -2 -10  -2  119.28    8.11
  -1  -9  -2    3.65    1.16
  -1  -9  -2    3.40    0.66
   0   8   2   91.78    6.62
   0  -8  -2   94.21    6.12
   0  -8  -2   93.91    6.79
  -1   7   2    6.33    1.66
   1  -7  -2    6.58    1.49
   1  -7  -2    6.98    1.99
   2  -6  -2  226.54   14.23
  -5   3   2  421.06   31.61
   5  -3  -2  445.83   32.11
   5  -3  -2  448.42   30.62
  -6   2   2   73.56    2.15
   6  -2  -2   72.91    1.99
   6  -2  -2   73.31    2.15
  -7   1   2   41.35    3.48
   7  -1  -2   41.89    3.48
  -8   0   2  198.08    7.45
   8   0  -2  201.16    7.61
 -10  -2   2   11.22    0.66
  10   2  -2   11.02    0.83
 -11  -3   2  652.39   36.25
  11   3  -2  648.72   35.09
 -12  -4   2  182.30   10.43
  12   4  -2  181.90   10.26
 -13  -5   2   24.31    2.81
  13   5  -2   24.36    2.81
 -14  -6   2   31.16    3.81
  14   6  -2   29.22    3.64
 -15  -7   2   -0.07    1.16
  15   7  -2    0.23    1.16
 -16  -8   2   49.61    3.81
  16   8  -2   49.36    3.81
 -17  -9   2    5.10    1.82
  17   9  -2    4.95    1.66
 -18 -10   2   30.33    3.14
  18  10  -2   29.78    2.98
 -19 -11   2    4.04    1.99
 -20 -12   2    5.05    2.32
 -21 -13   2    2.61    2.32
  -7 -17  -2   23.16    2.65
  -6 -16  -2   -0.14    2.15
  -5 -15  -2    0.02    2.15
  -4 -14  -2   11.44    2.65
  -3 -13  -2    4.18    1.82
  -2 -12  -2    8.08    1.99
  -1 -11  -2   11.97    1.49
   0 -10  -2  300.42   13.90
   0 -10  -2  295.16   12.91
  -1   9   2    9.74    2.48
   1  -9  -2   12.03    2.81
   1  -9  -2    9.79    1.99
  -2   8   2   29.68    3.64
   2  -8  -2   31.17    3.97
   2  -8  -2   30.47    3.31
  -3   7   2  157.59   10.92
   3  -7  -2  157.14   10.43
  -4   6   2    9.98    1.99
   4  -6  -2   10.42    1.82
   4  -6  -2   10.32    2.15
   5  -5  -2   27.06    1.82
   5  -5  -2   26.22    2.15
   6  -4  -2   70.07    1.99
  -8   2   2   44.63    3.31
   9  -1  -2  212.47   11.26
 -10   0   2   24.69    1.32
  10   0  -2   23.00    1.16
 -11  -1   2  425.23   25.66
  11   1  -2  421.80   24.83
 -12  -2   2  168.69   12.08
  12   2  -2  168.84   11.75
 -13  -3   2   56.44    3.31
  13   3  -2   55.29    3.31
 -14  -4   2   42.74    6.29
  14   4  -2   39.81    6.12
 -15  -5   2   69.75    3.97
  15   5  -2   71.79    3.97
 -16  -6   2   29.94    2.81
  16   6  -2   30.44    2.81
 -17  -7   2    4.45    1.49
  17   7  -2    4.79    1.49
 -18  -8   2   80.46    5.13
  18   8  -2   80.56    4.97
 -19  -9   2    9.11    1.99
  19   9  -2    9.06    1.82
 -20 -10   2   17.56    2.32
 -21 -11   2    8.47    2.15
 -22 -12   2   -0.33    1.99
  -5 -17  -2    0.60    2.48
  -4 -16  -2    1.79    2.32
  -3 -15  -2   -0.33    2.15
  -2 -14  -2   46.16    3.64
  -1 -13  -2    0.62    1.82
   0 -12  -2   16.80    2.15
   1 -11  -2    6.46    0.99
   1 -11  -2    6.07    1.82
  -2  10   2   84.36    5.79
   2 -10  -2   83.56    5.96
   2 -10  -2   84.31    5.30
  -3   9   2   86.96    4.63
   3  -9  -2   85.42    4.80
   3  -9  -2   87.70    4.14
  -4   8   2    3.41    1.16
   4  -8  -2    2.91    0.66
   4  -8  -2    3.80    0.99
  -5   7   2  177.67    9.93
   5  -7  -2  177.37    9.43
   5  -7  -2  174.49   10.10
  -6   6   2   24.08    0.99
   6  -6  -2   24.68    0.99
   6  -6  -2   23.68    1.16
  -7   5   2    6.97    0.83
   7  -5  -2    7.26    0.83
  -8   4   2  105.79    3.48
   9  -3  -2  432.82   26.65
  10  -2  -2   11.12    0.83
 -12   0   2  260.22   14.07
  12   0  -2  269.90   13.74
 -13  -1   2    7.99    0.66
  13   1  -2    8.24    0.83
 -14  -2   2   99.20    7.78
  14   2  -2   98.41    7.61
 -15  -3   2    0.75    0.99
  15   3  -2    0.65    0.99
 -16  -4   2    9.03    2.32
  16   4  -2    9.08    2.32
 -17  -5   2   47.30    3.31
  17   5  -2   46.76    3.31
 -18  -6   2  115.38    6.79
  18   6  -2  112.94    6.62
 -19  -7   2    9.10    1.66
  19   7  -2    9.05    1.66
 -20  -8   2   10.85    2.32
  20   8  -2   11.44    2.32
 -21  -9   2   11.71    2.15
  21   9  -2   12.56    2.15
 -22 -10   2   -0.14    1.82
 -23 -11   2    9.71    2.15
 -24 -12   2    0.28    2.32
  -4 -18  -2    0.43    2.65
  -3 -17  -2    0.25    2.65
  -2 -16  -2    0.64    2.48
  -1 -15  -2    0.64    2.15
   0 -14  -2   76.56    3.81
   1 -13  -2    3.99    2.15
   2 -12  -2    2.86    1.99
  -3  11   2   32.10    3.48
   3 -11  -2   32.65    3.81
   3 -11  -2   32.05    3.14
  -4  10   2    8.95    2.32
   4 -10  -2    9.79    2.48
   4 -10  -2   10.39    1.99
  -5   9   2   43.14    2.81
   5  -9  -2   44.38    2.65
  -6   8   2   58.18    4.14
   6  -8  -2   58.43    3.81
   6  -8  -2   58.03    4.30
  -7   7   2   85.93    5.79
   7  -7  -2   87.52    5.46
  -8   6   2    4.31    0.99
   8  -6  -2    4.11    0.83
   9  -5  -2   22.78    2.15
 -10   4   2    7.97    0.99
  10  -4  -2    7.42    0.99
 -11   3   2  634.47   33.44
  11  -3  -2  641.07   32.28
 -12   2   2  162.19    9.60
  12  -2  -2  153.00    9.27
 -13   1   2    7.94    0.33
  13  -1  -2    7.79    0.83
 -15  -1   2   13.08    0.66
 -16  -2   2  125.15    4.97
  17   3  -2   18.47    1.99
 -18  -4   2   43.57    3.64
  18   4  -2   46.05    3.97
 -19  -5   2   31.19    2.15
  19   5  -2   31.79    2.32
 -20  -6   2   92.93    4.30
  20   6  -2   92.88    4.30
 -21  -7   2   19.99    2.81
  21   7  -2   20.34    2.98
 -22  -8   2   -0.15    1.66
  22   8  -2   -0.15    1.66
 -23  -9   2    6.53    1.99
 -24 -10   2    3.47    2.15
 -25 -11   2    7.54    2.32
  -2 -18  -2    4.47    2.98
  -1 -17  -2    1.66    2.48
   0 -16  -2    6.78    2.65
   1 -15  -2    0.13    2.32
   2 -14  -2   11.26    2.65
   3 -13  -2   41.91    3.48
  -4  12   2    5.61    1.49
   4 -12  -2    6.01    1.82
   4 -12  -2    5.42    1.16
  -5  11   2   46.45    3.14
   5 -11  -2   47.05    3.31
   5 -11  -2   46.50    2.81
  -6  10   2   37.26    2.32
   6 -10  -2   38.50    2.15
  -7   9   2   42.43    3.31
   7  -9  -2   42.38    2.98
  -8   8   2   97.73    4.30
   8  -8  -2   98.87    4.14
  -9   7   2  198.25   12.74
   9  -7  -2  194.07   12.25
 -10   6   2   27.61    2.15
  10  -6  -2   27.27    1.99
 -11   5   2   47.94    3.81
  11  -5  -2   50.18    3.81
 -12   4   2  182.20   10.59
  12  -4  -2  182.20   10.26
 -13   3   2   54.45    3.14
  13  -3  -2   56.09    3.31
  15  -1  -2   15.22    1.49
 -16   0   2   22.94    4.80
  16   0  -2   28.25    4.97
 -19  -3   2   19.67    1.49
  19   3  -2   20.82    1.82
 -20  -4   2    1.46    1.49
  20   4  -2    2.06    1.66
 -21  -5   2   34.45    3.31
  21   5  -2   35.35    3.48
 -22  -6   2    5.76    1.66
  22   6  -2    5.61    1.82
 -23  -7   2   16.51    2.32
  23   7  -2   16.36    2.32
 -24  -8   2    2.51    1.99
  24   8  -2    1.47    1.82
 -25  -9   2    3.40    2.15
 -26 -10   2    0.97    2.32
   0 -18  -2   11.36    2.81
   1 -17  -2    0.49    2.65
   2 -16  -2    3.69    2.65
   3 -15  -2   12.03    2.65
   4 -14  -2    1.79    2.32
  -5  13   2   22.27    2.32
   5 -13  -2   23.41    2.15
   5 -13  -2   23.26    2.81
  -6  12   2    0.60    1.49
   6 -12  -2    0.70    1.82
   6 -12  -2    0.50    1.16
  -7  11   2   10.02    1.82
   7 -11  -2   10.07    1.49
   7 -11  -2   10.27    1.99
  -8  10   2   42.32    1.99
   8 -10  -2   43.31    1.99
  -9   9   2   92.94    5.63
   9  -9  -2   91.70    5.30
 -10   8   2    0.20    1.16
  10  -8  -2   -0.30    1.16
 -11   7   2  236.12   13.24
  11  -7  -2  239.70   12.74
 -12   6   2  115.06    8.61
  12  -6  -2  116.95    8.44
 -13   5   2   24.85    3.14
  13  -5  -2   25.65    3.14
 -14   4   2   39.12    5.96
  14  -4  -2   40.26    5.96
 -15   3   2    0.20    0.83
  15  -3  -2    0.45    0.83
 -16   2   2  142.03    7.94
  16  -2  -2  134.19    7.78
 -17   1   2   37.55    1.99
  17  -1  -2   39.19    2.48
 -20  -2   2  155.57    5.30
  20   2  -2  156.07    5.30
 -21  -3   2   12.13    2.15
  21   3  -2   12.82    2.48
 -22  -4   2    7.77    1.49
  22   4  -2    7.97    1.66
 -23  -5   2   25.58    2.48
  23   5  -2   26.87    2.65
 -24  -6   2    0.30    1.66
  24   6  -2    0.95    1.82
 -25  -7   2   12.61    2.48
  25   7  -2   11.32    2.48
 -26  -8   2    2.04    2.15
 -27  -9   2    1.49    2.15
   2 -18  -2    3.91    3.14
   3 -17  -2    5.02    2.81
   4 -16  -2    0.20    2.65
   5 -15  -2    9.69    2.65
  -6  14   2    1.93    1.82
   6 -14  -2    3.13    2.32
  -7  13   2   10.26    1.99
   7 -13  -2   10.46    1.49
   7 -13  -2   10.21    2.15
  -8  12   2    2.13    1.66
   8 -12  -2    2.18    1.49
   8 -12  -2    1.29    1.82
  -9  11   2   20.98    2.48
   9 -11  -2   21.72    2.32
 -10  10   2    1.74    1.49
  10 -10  -2    1.45    1.16
 -11   9   2  160.81   10.76
  11  -9  -2  158.97   10.26
 -12   8   2  123.56    6.46
  12  -8  -2  120.73    6.29
 -13   7   2   13.26    1.99
  13  -7  -2   12.72    1.99
 -14   6   2   29.27    3.64
  14  -6  -2   29.82    3.64
 -15   5   2   69.40    3.64
  15  -5  -2   69.06    3.64
 -16   4   2    8.28    1.99
  16  -4  -2    5.65    1.66
 -17   3   2   19.01    1.99
  18  -2  -2  241.73    9.43
 -19   1   2   44.68    2.65
  19  -1  -2   45.83    2.98
 -20   0   2   32.03    4.47
  20   0  -2   31.19    4.47
 -21  -1   2   52.87    4.80
  21   1  -2   51.98    4.80
 -22  -2   2    5.70    1.32
  22   2  -2    5.35    1.49
 -23  -3   2    2.70    1.49
  23   3  -2    1.76    1.82
 -24  -4   2   19.69    2.15
  24   4  -2   19.94    2.48
 -25  -5   2   17.66    2.32
  25   5  -2   17.61    2.48
 -26  -6   2    0.71    1.82
  26   6  -2    0.61    1.99
 -27  -7   2    1.81    2.15
  27   7  -2    1.71    2.15
 -28  -8   2    0.53    1.99
   4 -18  -2    0.69    2.98
   5 -17  -2    4.46    2.81
   6 -16  -2    5.82    2.81
  -7  15   2    1.47    2.15
   7 -15  -2    1.27    2.65
  -8  14   2   10.08    1.99
   8 -14  -2   10.13    1.49
   8 -14  -2   10.83    2.32
  -9  13   2   16.40    2.15
   9 -13  -2   15.41    2.32
   9 -13  -2   16.65    1.82
 -10  12   2   12.75    2.15
  10 -12  -2   11.91    2.32
  10 -12  -2   12.50    1.82
 -11  11   2   22.82    2.98
  11 -11  -2   23.17    2.81
 -12  10   2   20.52    2.65
  12 -10  -2   19.83    2.48
 -13   9   2   21.99    2.15
  13  -9  -2   22.69    2.15
 -14   8   2   79.43    6.29
  14  -8  -2   78.83    6.12
 -15   7   2   -0.12    1.16
  15  -7  -2    0.33    1.49
 -16   6   2   30.74    2.98
  16  -6  -2   29.99    2.98
 -17   5   2   47.85    3.48
  17  -5  -2   45.96    3.48
 -19   3   2   19.97    1.49
  19  -3  -2   19.92    1.66
 -20   2   2  154.48    5.30
  20  -2  -2  156.72    5.30
 -21   1   2   51.18    4.63
  21  -1  -2   51.78    4.63
 -22   0   2    0.70    1.32
  22   0  -2    1.30    1.66
 -23  -1   2   44.70    4.63
  23   1  -2   44.70    4.63
 -24  -2   2    1.94    1.66
  24   2  -2    1.74    1.99
 -25  -3   2    2.84    1.82
  25   3  -2    3.34    2.32
 -26  -4   2    1.47    1.82
  26   4  -2    1.37    1.99
 -27  -5   2    3.66    1.82
  27   5  -2    3.71    2.15
 -28  -6   2   -0.24    1.99
  28   6  -2   -0.54    1.99
 -29  -7   2    2.46    2.32
   7 -17  -2    2.79    2.98
  -8  16   2    4.08    2.15
   8 -16  -2    4.37    2.65
  -9  15   2    7.92    2.48
   9 -15  -2    7.07    2.65
 -10  14   2    0.13    1.82
  10 -14  -2    0.68    1.66
  10 -14  -2    0.73    2.32
 -11  13   2   28.35    2.98
  11 -13  -2   28.06    2.48
  11 -13  -2   27.41    3.14
 -12  12   2   64.96    3.81
  12 -12  -2   64.02    3.64
 -13  11   2    3.80    1.66
  13 -11  -2    4.25    1.49
 -14  10   2    5.76    2.15
  14 -10  -2    5.47    2.15
 -15   9   2    1.41    1.49
  15  -9  -2    1.46    1.66
 -16   8   2   50.95    4.30
  16  -8  -2   50.70    4.14
 -17   7   2    4.94    1.66
  17  -7  -2    4.70    1.66
 -18   6   2  112.89    6.46
  18  -6  -2  112.10    6.46
 -19   5   2   31.84    2.32
  19  -5  -2   31.74    2.48
 -20   4   2    1.36    1.32
  20  -4  -2    1.71    1.66
 -21   3   2   12.03    2.15
  21  -3  -2   12.23    2.32
 -22   2   2    4.85    1.16
  22  -2  -2    5.70    1.66
 -23   1   2   43.76    4.47
  23  -1  -2   45.10    4.63
 -24   0   2   16.74    1.66
  24   0  -2   16.29    1.82
 -25  -1   2   34.10    3.97
  25   1  -2   33.50    3.97
 -26  -2   2    1.46    1.82
  26   2  -2    1.01    1.99
 -27  -3   2   -0.04    1.66
  27   3  -2   -0.43    1.99
 -28  -4   2    0.42    1.99
  28   4  -2   -0.17    2.15
 -29  -5   2    2.32    2.15
  29   5  -2    1.97    2.32
 -30  -6   2    9.48    2.48
  30   6  -2    9.23    2.65
  -9  17   2    3.92    2.32
   9 -17  -2    3.53    2.98
 -10  16   2   -0.26    2.15
  10 -16  -2    0.24    2.65
 -11  15   2   16.24    2.65
  11 -15  -2   15.00    2.81
 -12  14   2    7.06    2.15
  12 -14  -2    6.96    1.99
  12 -14  -2    7.01    2.65
 -13  13   2    1.71    1.82
  13 -13  -2    1.61    1.66
 -14  12   2   20.38    2.81
  14 -12  -2   21.18    2.65
 -15  11   2    6.74    1.82
  15 -11  -2    6.84    1.82
 -16  10   2    5.77    1.99
  16 -10  -2    5.32    1.99
 -17   9   2    4.80    1.82
  17  -9  -2    4.16    1.82
 -18   8   2   81.50    5.30
  18  -8  -2   80.66    5.30
 -19   7   2    9.55    1.82
  19  -7  -2    9.20    1.82
 -20   6   2   90.60    3.97
  20  -6  -2   92.39    4.14
 -21   5   2   33.11    3.14
  21  -5  -2   34.16    3.31
 -22   4   2    7.67    1.49
  22  -4  -2    8.37    1.82
 -23   3   2    2.80    1.66
  23  -3  -2    2.60    1.82
 -24   2   2    0.90    1.66
  24  -2  -2    0.95    1.82
 -25   1   2   32.81    3.64
  25  -1  -2   32.41    3.81
 -26   0   2    7.46    1.99
  26   0  -2    6.07    2.15
 -27  -1   2    9.44    1.99
  27   1  -2    8.89    2.32
 -28  -2   2    1.05    1.82
  28   2  -2    1.40    2.32
 -29  -3   2    2.98    2.15
  29   3  -2    3.38    2.32
 -30  -4   2   17.77    2.48
  30   4  -2   19.11    2.98
 -11  17   2    4.72    2.48
  11 -17  -2    5.32    3.14
 -12  16   2    9.42    2.48
  12 -16  -2    9.46    2.98
 -13  15   2    0.69    2.15
  13 -15  -2    0.40    2.65
  13 -15  -2   -0.05    1.82
 -14  14   2    3.45    2.32
  14 -14  -2    3.10    1.99
  14 -14  -2    2.65    2.65
 -15  13   2    2.24    2.15
  15 -13  -2    1.80    1.82
 -16  12   2    6.56    2.15
  16 -12  -2    5.56    1.99
 -17  11   2    4.56    1.99
  17 -11  -2    4.60    2.15
 -18  10   2   30.53    3.31
  18 -10  -2   29.88    3.31
 -19   9   2    9.61    2.15
  19  -9  -2    9.71    2.15
 -20   8   2   11.29    2.48
  20  -8  -2   11.69    2.48
 -21   7   2   19.69    2.98
  21  -7  -2   19.25    2.98
 -22   6   2    4.96    1.66
  22  -6  -2    4.77    1.66
 -23   5   2   26.42    2.65
  23  -5  -2   26.62    2.81
 -24   4   2   18.95    2.15
  24  -4  -2   20.04    2.32
 -25   3   2    1.75    1.66
  25  -3  -2    2.64    1.99
 -26   2   2    1.80    1.82
  26  -2  -2    1.31    1.99
 -27   1   2    8.99    1.99
  27  -1  -2    9.44    2.32
 -28   0   2    3.14    1.82
  28   0  -2    2.59    1.99
 -29  -1   2    6.16    2.15
  29   1  -2    6.01    2.48
 -30  -2   2   13.28    2.81
  30   2  -2   12.28    3.14
 -31  -3   2    0.14    2.15
  31   3  -2   -0.55    2.48
 -14  16   2    1.95    2.48
  14 -16  -2    1.26    2.81
 -15  15   2    1.06    2.32
  15 -15  -2   -0.23    1.99
  15 -15  -2   -0.43    2.48
 -16  14   2    4.37    2.32
  16 -14  -2    3.03    1.99
 -17  13   2    2.08    2.32
  17 -13  -2    1.43    1.99
 -18  12   2   22.02    2.65
  18 -12  -2   20.68    2.48
 -19  11   2    3.10    1.82
  19 -11  -2    3.69    1.99
 -20  10   2   17.81    2.32
  20 -10  -2   17.41    2.48
 -21   9   2   11.96    2.32
  21  -9  -2   12.36    2.32
 -22   8   2   -0.40    1.66
  22  -8  -2    0.05    1.82
 -23   7   2   15.91    2.32
  23  -7  -2   16.16    2.48
 -24   6   2    0.30    1.66
  24  -6  -2    1.45    1.82
 -25   5   2   16.97    2.32
  25  -5  -2   15.93    2.32
 -26   4   2    0.97    1.82
  26  -4  -2    1.07    1.99
 -27   3   2   -0.14    1.66
  27  -3  -2   -0.09    1.99
 -28   2   2    0.65    1.82
  28  -2  -2    1.25    2.15
 -29   1   2    6.76    2.32
  29  -1  -2    6.41    2.65
 -30   0   2   29.68    2.98
  30   0  -2   29.93    3.31
 -31  -1   2    0.54    2.15
  31   1  -2    0.19    2.48
 -16  16   2    0.70    2.48
 -17  15   2    2.47    2.48
  17 -15  -2    0.53    2.81
  17 -15  -2    0.93    2.15
 -18  14   2   12.72    2.65
  18 -14  -2   12.07    2.48
 -19  13   2    1.98    2.15
  19 -13  -2    2.42    2.15
 -20  12   2    6.49    2.32
  20 -12  -2    5.60    2.32
 -21  11   2   10.21    2.48
  21 -11  -2    9.67    2.48
 -22  10   2    0.20    1.82
  22 -10  -2   -0.24    1.82
 -23   9   2    6.53    1.99
  23  -9  -2    6.08    1.99
 -24   8   2    1.42    1.66
  24  -8  -2    1.72    1.99
 -25   7   2   10.87    2.32
  25  -7  -2   11.32    2.32
 -26   6   2    0.41    1.82
  26  -6  -2    0.51    1.99
 -27   5   2    3.86    1.82
  27  -5  -2    3.41    1.99
 -28   4   2    0.52    1.99
  28  -4  -2   -0.17    2.15
 -29   3   2    4.62    2.32
  29  -3  -2    3.18    2.32
 -30   2   2   12.58    2.65
  30  -2  -2   11.89    2.81
 -31   1   2   -0.21    2.15
  31  -1  -2    0.39    2.32
 -20  14   2    4.97    2.48
  20 -14  -2    4.87    2.32
 -21  13   2    3.75    2.32
  21 -13  -2    3.70    2.48
 -22  12   2    0.66    2.15
  22 -12  -2   -0.43    2.15
 -23  11   2   10.11    2.15
  23 -11  -2   10.85    2.32
 -24  10   2    3.27    1.99
  24 -10  -2    2.58    2.15
 -25   9   2    3.30    1.99
  25  -9  -2    4.24    2.32
 -26   8   2    0.99    1.82
  26  -8  -2    0.99    1.99
 -27   7   2    0.42    1.82
  27  -7  -2    1.86    2.32
 -28   6   2   -0.54    1.99
  28  -6  -2    0.21    2.15
 -29   5   2    1.27    2.15
  29  -5  -2    1.77    2.48
 -30   4   2   18.06    2.65
  30  -4  -2   18.36    2.98
 -31   3   2   -0.60    1.99
  31  -3  -2   -0.25    2.48
 -24  12   2    0.93    2.15
  24 -12  -2    0.18    2.15
 -25  11   2    7.54    2.32
  25 -11  -2    8.14    2.48
 -26  10   2    0.32    1.99
  26 -10  -2    1.71    2.32
 -27   9   2    0.94    1.99
  27  -9  -2    1.74    2.32
 -28   8   2    0.58    1.82
  28  -8  -2    0.53    2.15
 -29   7   2    1.96    2.15
  29  -7  -2    2.66    2.32
 -30   6   2   10.37    2.48
  30  -6  -2    9.93    2.65
  25  -9   3    9.66    2.65
 -25   9  -3    9.71    3.14
  24 -10   3    1.14    2.32
  28  -4   3   -0.03    2.15
 -28   4  -3   -0.17    2.32
  27  -5   3    1.95    2.32
 -27   5  -3    1.55    2.48
  26  -6   3    8.76    2.32
 -26   6  -3    8.16    2.48
  25  -7   3   11.53    2.98
 -25   7  -3   12.32    3.31
  24  -8   3    8.35    2.32
 -24   8  -3    7.95    2.65
  23  -9   3   25.48    2.65
 -23   9  -3   28.06    3.31
  22 -10   3    2.80    2.32
 -22  10  -3    2.60    2.65
  21 -11   3   -0.22    2.15
 -21  11  -3   -0.07    2.48
  20 -12   3    6.68    2.81
 -20  12  -3    6.73    2.98
  19 -13   3   -0.23    2.32
 -19  13  -3   -0.23    2.48
  29  -1   3    1.14    2.48
  28  -2   3    0.87    2.15
  27  -3   3    0.21    2.15
 -27   3  -3    0.61    2.32
  26  -4   3    4.12    2.32
 -26   4  -3    4.27    2.48
  25  -5   3   27.59    3.81
 -25   5  -3   32.20    4.47
  24  -6   3    1.59    2.15
 -24   6  -3    0.40    2.32
  23  -7   3   27.67    2.98
 -23   7  -3   27.77    3.14
  22  -8   3    1.92    1.99
 -22   8  -3    2.46    2.32
  21  -9   3    6.60    2.15
 -21   9  -3    6.60    2.48
  20 -10   3   30.75    3.31
 -20  10  -3   31.84    3.64
  19 -11   3    1.12    2.32
 -19  11  -3    0.17    2.32
  18 -12   3    0.30    2.15
 -18  12  -3   -0.15    2.32
  17 -13   3    0.81    2.32
 -17  13  -3    1.05    2.48
  16 -14   3    5.61    2.48
 -16  14  -3    5.56    2.65
  15 -15   3    2.70    2.32
 -29  -1  -3   -0.05    1.99
  28   0   3    4.34    2.48
 -28   0  -3    3.99    1.99
  27  -1   3    0.48    1.99
 -27   1  -3    0.28    1.66
  26  -2   3    1.96    2.15
 -26   2  -3    2.70    2.32
  25  -3   3   36.02    4.63
 -25   3  -3   38.45    4.97
  24  -4   3    3.38    1.99
 -24   4  -3    3.28    2.32
  23  -5   3   46.39    3.64
 -23   5  -3   48.87    3.97
  22  -6   3    8.88    2.48
 -22   6  -3    8.88    2.65
  21  -7   3    1.49    1.99
 -21   7  -3    0.29    2.15
  20  -8   3    8.89    2.81
 -20   8  -3    9.04    2.98
  19  -9   3   -0.55    1.82
 -19   9  -3   -0.35    2.15
  18 -10   3   12.04    2.15
 -18  10  -3   11.79    2.32
  17 -11   3    0.64    2.15
 -17  11  -3    0.25    2.15
  16 -12   3    1.98    2.32
 -16  12  -3    1.53    2.32
  15 -13   3    6.45    2.32
 -15  13  -3    6.85    2.32
  14 -14   3    6.29    2.65
 -14  14  -3    5.20    2.48
  13 -15   3    9.94    2.48
  12 -16   3    3.06    2.32
 -28  -2  -3    0.68    1.82
 -27  -1  -3    0.23    1.82
  26   0   3   18.86    2.48
 -26   0  -3   20.15    2.32
  25  -1   3   29.11    3.81
 -25   1  -3   28.12    3.97
 -25   1  -3   28.17    3.81
  24  -2   3   22.51    2.15
 -24   2  -3   22.21    2.32
 -24   2  -3   22.16    1.66
  23  -3   3   81.18    5.13
 -23   3  -3   81.38    4.80
 -23   3  -3   84.31    5.30
  22  -4   3    1.09    1.99
 -22   4  -3    0.25    1.32
 -22   4  -3    0.29    1.99
  21  -5   3    3.19    1.82
 -21   5  -3    3.73    1.99
  20  -6   3   73.11    5.79
 -20   6  -3   75.35    6.12
  19  -7   3    0.83    1.99
 -19   7  -3   -0.26    1.82
  18  -8   3    3.44    1.99
 -18   8  -3    2.45    1.99
  17  -9   3    4.07    1.82
 -17   9  -3    4.57    1.99
  16 -10   3   23.57    2.81
 -16  10  -3   23.92    2.81
  15 -11   3    8.63    1.99
 -15  11  -3    8.63    1.99
  14 -12   3    9.29    2.65
 -14  12  -3    8.39    2.65
  13 -13   3   13.25    2.65
 -13  13  -3   11.66    2.48
  12 -14   3    2.86    2.32
 -12  14  -3    2.57    2.48
  11 -15   3   14.42    2.65
  10 -16   3    0.30    2.15
 -28  -4  -3   -0.27    1.99
 -27  -3  -3    0.61    1.99
 -26  -2  -3    1.66    1.82
  25   1   3   27.87    3.64
 -25  -1  -3   26.23    3.14
  24   0   3    0.10    1.66
 -24   0  -3   -0.05    1.49
 -24   0  -3    0.84    1.82
  23  -1   3   54.53    4.14
 -23   1  -3   52.99    4.14
 -23   1  -3   53.74    3.97
  22  -2   3    1.89    1.99
 -22   2  -3    2.34    1.99
 -22   2  -3    1.54    1.49
  21  -3   3   13.56    1.99
 -21   3  -3   12.81    2.15
 -21   3  -3   13.21    1.49
  20  -4   3   46.88    5.13
 -20   4  -3   47.67    5.13
 -20   4  -3   44.55    4.63
  19  -5   3    1.09    1.66
 -19   5  -3    1.99    1.16
 -19   5  -3    1.64    1.82
  18  -6   3   28.19    2.48
 -18   6  -3   29.19    1.82
 -18   6  -3   28.89    2.48
  17  -7   3    1.85    1.66
 -17   7  -3    1.51    1.82
  16  -8   3    1.69    1.99
 -16   8  -3    1.09    1.99
  15  -9   3   25.81    2.15
 -15   9  -3   24.32    2.15
  14 -10   3   38.15    3.31
 -14  10  -3   38.65    3.31
  13 -11   3   44.80    4.14
 -13  11  -3   43.36    3.97
  12 -12   3   15.31    2.32
 -12  12  -3   15.56    2.15
  11 -13   3   17.14    2.81
 -11  13  -3   15.25    2.65
  10 -14   3    1.32    2.15
   9 -15   3    3.21    2.32
   8 -16   3    4.95    2.32
   7 -17   3    0.86    2.32
 -27  -5  -3    1.25    2.15
 -26  -4  -3    3.62    1.99
 -25  -3  -3   38.35    4.80
 -24  -2  -3   21.82    1.82
  23   1   3   53.39    3.81
 -23  -1  -3   52.59    3.81
 -23  -1  -3   52.74    3.97
  22   0   3    4.38    2.15
 -22   0  -3    3.68    1.99
 -22   0  -3    3.24    1.49
  21  -1   3    1.37    1.49
 -21   1  -3    1.27    1.66
 -21   1  -3    1.71    1.32
  20  -2   3   68.77    6.46
 -20   2  -3   68.43    6.46
 -20   2  -3   68.67    6.62
  19  -3   3   -0.42    1.49
 -19   3  -3   -0.27    0.99
 -19   3  -3   -0.32    1.49
  18  -4   3    4.03    1.66
 -18   4  -3    4.23    1.66
 -18   4  -3    4.23    0.99
  17  -5   3    4.26    1.66
 -17   5  -3    4.81    1.66
 -17   5  -3    5.65    0.99
  16  -6   3   72.02    5.30
 -16   6  -3   72.42    5.46
 -16   6  -3   75.50    4.97
  15  -7   3   31.92    2.15
 -15   7  -3   33.26    1.66
 -15   7  -3   31.32    2.15
  14  -8   3    2.45    1.99
 -14   8  -3    3.98    2.15
  13  -9   3   27.97    2.98
 -13   9  -3   27.97    2.98
  12 -10   3   19.40    2.32
 -12  10  -3   18.26    1.99
  11 -11   3   82.74    5.13
 -11  11  -3   82.59    5.13
  10 -12   3    2.26    1.99
 -10  12  -3    2.66    1.99
   9 -13   3    5.07    2.32
  -9  13  -3    5.22    2.32
   8 -14   3    3.15    2.15
   7 -15   3    2.81    2.48
   6 -16   3    2.50    2.32
   5 -17   3    4.71    2.15
 -26  -6  -3    7.92    2.15
 -25  -5  -3   30.57    4.14
 -24  -4  -3    3.43    1.82
 -23  -3  -3   84.36    5.30
 -23  -3  -3   84.06    5.46
  22   2   3    2.54    1.82
 -22  -2  -3    1.99    1.82
 -22  -2  -3    2.14    1.66
  21   1   3    1.61    1.49
 -21  -1  -3    1.42    1.49
 -21  -1  -3    1.02    1.16
  20   0   3   51.69    5.30
 -20   0  -3   50.35    5.13
 -20   0  -3   51.24    5.30
  19  -1   3    2.65    1.49
 -19   1  -3    3.30    1.16
 -19   1  -3    3.35    1.49
  18  -2   3   21.51    1.99
 -18   2  -3   21.56    1.99
 -18   2  -3   21.31    1.49
  17  -3   3    2.78    1.49
 -17   3  -3    3.37    1.49
 -17   3  -3    2.53    0.83
  16  -4   3   37.93    4.14
 -16   4  -3   37.04    4.14
 -16   4  -3   37.98    3.64
  15  -5   3   40.83    1.99
 -15   5  -3   41.33    2.15
 -15   5  -3   42.03    1.49
  14  -6   3  130.42    7.12
 -14   6  -3  131.41    6.95
 -14   6  -3  130.42    7.45
  13  -7   3   60.27    5.13
 -13   7  -3   59.83    4.80
 -13   7  -3   60.07    5.30
  12  -8   3    8.24    1.66
 -12   8  -3    7.64    1.16
 -12   8  -3    8.24    1.66
  11  -9   3   30.67    3.14
 -11   9  -3   31.66    3.14
 -11   9  -3   30.62    2.81
  10 -10   3    9.29    1.82
 -10  10  -3    8.85    1.66
   9 -11   3   38.37    3.81
  -9  11  -3   35.89    3.64
   8 -12   3   27.11    3.81
  -8  12  -3   26.11    3.81
   7 -13   3    6.12    2.48
  -7  13  -3    5.82    2.32
   6 -14   3    0.36    1.99
   5 -15   3   23.77    2.65
   4 -16   3    5.18    2.32
   3 -17   3    3.11    2.15
 -25  -7  -3   12.72    2.81
 -24  -6  -3    0.90    1.82
 -23  -5  -3   49.76    3.97
 -22  -4  -3    0.84    1.66
 -22  -4  -3    1.24    1.66
 -21  -3  -3   13.46    1.82
 -21  -3  -3   13.66    1.82
  20   2   3   69.91    6.62
 -20  -2  -3   71.21    6.79
 -20  -2  -3   68.43    6.79
  19   1   3    3.25    1.49
 -19  -1  -3    3.44    1.16
 -19  -1  -3    2.95    1.32
  18   0   3    2.24    1.32
 -18   0  -3    2.19    1.32
 -18   0  -3    2.34    0.99
  17  -1   3    7.93    1.49
 -17   1  -3    8.13    1.49
 -17   1  -3    8.17    1.16
  16  -2   3   62.36    5.63
 -16   2  -3   61.66    5.30
 -16   2  -3   61.06    5.63
  15  -3   3   42.24    1.82
 -15   3  -3   41.49    1.16
 -15   3  -3   42.24    1.66
  14  -4   3   49.15    4.47
 -14   4  -3   49.30    4.47
 -14   4  -3   50.20    4.14
  13  -5   3  133.04    9.93
 -13   5  -3  133.38    9.77
 -13   5  -3  131.45   10.26
  12  -6   3   66.93    4.14
 -12   6  -3   65.20    4.14
 -12   6  -3   65.89    3.64
  10  -8   3    1.35    0.83
 -10   8  -3    1.20    0.83
 -10   8  -3    0.85    0.99
   9  -9   3    4.39    1.82
  -9   9  -3    4.59    1.32
  -9   9  -3    5.04    1.82
   8 -10   3   15.83    2.98
  -8  10  -3   16.03    2.48
  -8  10  -3   15.83    2.98
   7 -11   3   18.81    3.14
  -7  11  -3   21.39    2.98
  -7  11  -3   22.73    3.64
   6 -12   3   14.22    2.15
  -6  12  -3   14.17    2.15
   5 -13   3   31.97    2.32
   4 -14   3    4.26    1.99
   3 -15   3   12.20    1.99
   2 -16   3    2.31    1.82
   1 -17   3    1.03    1.99
 -25  -9  -3   11.10    2.65
 -24  -8  -3    8.80    1.99
 -23  -7  -3   26.73    2.48
 -22  -6  -3    8.43    1.99
 -21  -5  -3    3.78    1.66
 -21  -5  -3    3.14    1.49
 -20  -4  -3   49.16    5.30
 -20  -4  -3   46.73    5.30
  19   3   3   -0.32    1.16
 -19  -3  -3   -0.17    1.16
 -19  -3  -3   -0.17    1.32
  18   2   3   20.87    1.66
 -18  -2  -3   21.11    1.66
 -18  -2  -3   21.31    1.66
  17   1   3    8.08    1.32
 -17  -1  -3    7.73    1.16
 -17  -1  -3    8.03    1.32
  16   0   3   46.21    2.98
 -16   0  -3   45.02    2.81
 -16   0  -3   45.42    2.98
  15  -1   3   98.64    3.81
 -15   1  -3   99.39    3.81
 -15   1  -3   98.74    3.48
  14  -2   3   74.41    4.63
 -14   2  -3   75.85    4.63
 -14   2  -3   74.21    4.30
  13  -3   3  126.84    9.60
 -13   3  -3  119.09    9.43
 -13   3  -3  125.50    9.93
  12  -4   3   35.33    1.99
 -12   4  -3   35.97    1.49
 -12   4  -3   35.97    1.99
  11  -5   3  283.22   17.88
 -11   5  -3  278.21   18.54
  10  -6   3   35.18    1.82
  -8   8  -3   37.67    4.14
  -8   8  -3   37.13    3.64
   7  -9   3   12.14    2.48
  -7   9  -3   11.89    2.48
  -7   9  -3   13.23    2.15
   6 -10   3    0.54    1.49
  -6  10  -3    0.79    0.99
  -6  10  -3    0.84    1.66
   5 -11   3   67.97    3.81
  -5  11  -3   68.72    3.81
   4 -12   3   35.49    3.48
  -4  12  -3   36.14    3.64
   3 -13   3   14.00    1.66
   2 -14   3   12.85    2.15
   1 -15   3    0.42    1.82
   0 -16   3    1.79    1.99
  -1 -17   3    2.01    1.82
 -23  -9  -3   26.57    2.65
 -22  -8  -3    2.56    1.82
 -21  -7  -3    0.54    1.66
 -20  -6  -3   75.50    5.46
 -20  -6  -3   72.96    5.79
 -19  -5  -3    1.14    1.32
 -19  -5  -3    1.94    1.32
 -18  -4  -3    4.58    1.32
 -18  -4  -3    4.28    1.32
  17   3   3    2.93    1.16
 -17  -3  -3    3.57    1.16
 -17  -3  -3    3.42    1.32
  16   2   3   63.55    5.63
 -16  -2  -3   62.50    5.63
 -16  -2  -3   62.26    5.79
  15   1   3   98.59    3.64
 -15  -1  -3   99.68    3.64
 -15  -1  -3  100.48    3.81
  14   0   3  110.78    7.12
 -14   0  -3  107.65    7.28
 -14   0  -3  108.00    7.12
  13  -1   3   87.61    7.61
 -13   1  -3   88.36    7.94
 -13   1  -3   85.62    7.61
  12  -2   3    3.24    1.49
 -12   2  -3    2.74    0.83
 -12   2  -3    3.74    1.32
  11  -3   3  194.07   13.74
 -11   3  -3  192.58   14.23
  10  -4   3    0.68    1.32
 -10   4  -3    0.23    1.16
 -10   4  -3    0.88    0.66
   9  -5   3  217.27   14.73
  -9   5  -3  226.36   14.90
   8  -6   3   49.20    6.29
  -8   6  -3   45.67    6.12
  -8   6  -3   47.36    6.46
  -7   7  -3   70.91    7.12
  -7   7  -3   62.52    6.62
   6  -8   3    3.11    1.32
  -6   8  -3    3.11    0.50
  -6   8  -3    3.26    1.32
   5  -9   3  113.39    5.46
  -5   9  -3  113.64    5.63
   4 -10   3   10.76    2.65
  -4  10  -3   11.15    2.65
  -3  11  -3   22.59    1.99
  -2 -16   3    0.33    1.82
 -22 -10  -3    2.85    2.15
 -21  -9  -3    6.40    1.99
 -20  -8  -3    9.89    2.65
 -19  -7  -3    0.78    1.66
 -19  -7  -3    0.73    1.49
 -18  -6  -3   29.88    1.99
 -18  -6  -3   28.44    2.15
 -17  -5  -3    5.16    1.32
 -17  -5  -3    5.11    1.32
  16   4   3   38.03    3.64
 -16  -4  -3   39.32    3.97
 -16  -4  -3   37.83    3.81
  15   3   3   41.74    1.32
 -15  -3  -3   42.98    1.66
 -15  -3  -3   42.68    1.66
  14   2   3   76.64    4.80
 -14  -2  -3   77.93    4.97
 -14  -2  -3   76.39    4.97
  13   1   3   86.87    7.61
 -13  -1  -3   87.86    7.94
 -13  -1  -3   87.61    7.78
  12   0   3  146.76    5.63
 -12   0  -3  146.41    5.79
 -12   0  -3  145.86    5.63
  11  -1   3  231.84   16.06
 -11   1  -3  229.46   16.72
  10  -2   3    0.82    0.99
 -10   2  -3    0.82    0.83
 -10   2  -3    0.72    0.50
   9  -3   3   97.78    7.94
  -9   3  -3   99.12    7.78
  -9   3  -3   97.68    8.11
   8  -4   3  212.06   22.51
  -8   4  -3  219.96   23.01
   7  -5   3  199.81   17.71
  -7   5  -3  213.62   18.54
  -7   5  -3  209.84   18.04
   6  -6   3    1.25    0.50
  -6   6  -3    1.54    0.99
  -6   6  -3    1.49    0.66
  -5   7  -3  226.50   10.59
  -5   7  -3  225.56   11.09
  -4   8  -3   72.84    4.14
  -4   8  -3   74.33    4.14
  -3   9  -3   72.79    2.15
  -3   9  -3   72.44    2.15
  -2  10  -3   29.32    3.48
  -2  10  -3   28.87    3.64
  -1  11  -3    6.24    1.82
  -1  11  -3    5.79    1.66
   0  12  -3    0.54    1.66
   1  13  -3   39.61    2.81
   2  14  -3   13.94    2.32
   3  15  -3    0.21    1.99
  -4 -16   3    4.81    2.15
 -21 -11  -3    0.93    2.15
 -20 -10  -3   28.91    2.81
 -19  -9  -3    0.20    1.82
 -18  -8  -3    2.50    1.49
 -18  -8  -3    2.30    1.82
 -17  -7  -3    2.30    1.32
 -17  -7  -3    2.20    1.66
 -16  -6  -3   74.85    5.46
 -16  -6  -3   75.25    5.30
 -15  -5  -3   41.73    1.66
 -15  -5  -3   41.58    1.82
  14   4   3   50.15    4.14
 -14  -4  -3   49.85    4.47
 -14  -4  -3   50.10    4.30
  13   3   3  126.49   10.10
 -13  -3  -3  127.83   10.59
 -13  -3  -3  126.79   10.59
  12   2   3    3.24    1.16
 -12  -2  -3    3.19    1.16
 -12  -2  -3    3.74    1.32
  11   1   3  233.58   16.06
 -11  -1  -3  230.65   16.72
 -11  -1  -3  228.81   16.55
  10   0   3   55.59    2.98
 -10   0  -3   56.73    2.98
   9  -1   3  210.97   14.73
  -9   1  -3  217.87   15.39
  -9   1  -3  214.49   15.06
   8  -2   3  133.44   12.74
  -8   2  -3  127.44   13.24
  -8   2  -3  119.49   12.91
   7  -3   3  123.36   12.58
  -7   3  -3  129.67   12.74
   6  -4   3   57.10    4.80
  -6   4  -3   54.72    4.80
  -6   4  -3   56.70    4.47
  -5   5  -3  233.91   12.25
  -5   5  -3  230.73   12.74
  -4   6  -3   14.95    2.98
  -4   6  -3   15.59    3.31
  -4   6  -3   14.75    3.31
  -3   7  -3   77.29    2.65
  -3   7  -3   77.44    2.81
  -2   8  -3   49.70    4.14
  -2   8  -3   49.65    3.97
  -1   9  -3    9.62    2.98
  -1   9  -3   11.71    3.14
   0  10  -3   59.00    5.79
   0  10  -3   59.55    5.96
   1  11  -3   14.73    1.99
   2  12  -3    0.63    1.49
   3  13  -3    3.20    1.99
  -4 -14   3   11.26    2.15
   4  14  -3   11.06    2.15
  -5 -15   3    0.57    1.99
   5  15  -3    1.06    2.15
  -6 -16   3    2.97    2.15
  -7 -17   3   17.72    2.32
 -20 -12  -3    6.83    2.48
 -19 -11  -3    0.07    1.99
 -18 -10  -3   11.19    1.99
 -17  -9  -3    4.67    1.49
 -17  -9  -3    4.67    1.82
 -16  -8  -3    0.60    1.66
 -16  -8  -3    1.44    1.49
 -15  -7  -3   32.22    1.99
 -15  -7  -3   32.62    1.66
 -14  -6  -3  130.37    6.95
 -14  -6  -3  129.82    6.79
  13   5   3  128.72    8.94
 -13  -5  -3  131.05    9.43
 -13  -5  -3  132.09    9.60
  12   4   3   35.73    1.49
 -12  -4  -3   36.37    1.82
 -12  -4  -3   36.32    1.82
  11   3   3  192.19   13.57
 -11  -3  -3  194.02   14.07
 -11  -3  -3  194.22   14.23
  10   2   3    0.87    0.66
 -10  -2  -3    0.87    0.66
 -10  -2  -3    0.82    0.83
   9   1   3  165.93    4.14
  -8   0  -3   58.27    9.27
  -8   0  -3   58.47    9.60
  -7   1  -3  287.53   25.32
  -7   1  -3  272.88   24.83
   6  -2   3    2.08    1.16
  -5   3  -3  402.22   22.84
  -5   3  -3  398.94   22.35
  -5   3  -3  396.80   23.34
  -4   4  -3  386.43   23.01
  -4   4  -3  384.64   22.51
  -4   4  -3  382.16   23.50
  -3   5  -3   26.48    0.50
  -3   5  -3   26.58    0.83
  -2   6  -3   16.02    2.32
  -2   6  -3   16.91    2.32
  -1   7  -3    5.86    1.32
  -1   7  -3    5.86    1.32
   0   8  -3   45.59    2.81
   0   8  -3   46.83    2.81
   1   9  -3   73.31    4.63
   1   9  -3   72.51    4.80
   2  10  -3   60.49    4.14
   2  10  -3   60.34    3.97
   3  11  -3    0.52    1.32
   4  12  -3    1.87    1.66
  -5 -13   3    0.22    1.82
   5  13  -3    1.71    1.99
  -6 -14   3    3.74    1.66
   6  14  -3    4.14    1.82
  -7 -15   3   40.70    2.65
   7  15  -3   41.15    2.65
  -8 -16   3    0.75    2.15
  -9 -17   3    9.84    2.32
 -19 -13  -3    0.02    2.15
 -18 -12  -3    0.15    1.99
 -17 -11  -3    0.20    1.82
 -16 -10  -3   25.21    2.48
 -16 -10  -3   24.16    2.65
 -15  -9  -3   26.51    1.82
 -15  -9  -3   25.36    1.99
 -14  -8  -3    3.79    1.66
 -14  -8  -3    3.59    1.99
 -13  -7  -3   61.07    4.97
 -13  -7  -3   59.78    5.13
 -12  -6  -3   65.00    3.81
 -12  -6  -3   65.25    3.48
  11   5   3  272.50   16.55
 -11  -5  -3  279.35   17.55
 -11  -5  -3  280.34   17.55
  10   4   3    0.68    0.66
 -10  -4  -3    0.78    0.99
 -10  -4  -3    1.23    0.99
   9   3   3   98.08    7.61
  -9  -3  -3   98.57    7.94
  -9  -3  -3   97.88    7.94
   8   2   3  133.05   13.57
  -8  -2  -3  128.38   14.23
   7   1   3  277.05   24.00
  -7  -1  -3  273.23   24.83
  -7  -1  -3  288.03   25.16
   6   0   3   20.04    0.99
  -6   0  -3   20.63    0.99
  -6   0  -3   21.43    0.83
  -4   2  -3   38.94    3.81
  -3   3  -3   62.72    1.66
  -3   3  -3   62.28    1.49
  -2   4  -3  231.03   14.07
  -1   5  -3   91.56   10.59
  -1   5  -3   87.05   10.92
   0   6  -3   54.73    6.12
   0   6  -3   52.45    5.96
   1   7  -3   25.06    2.15
   1   7  -3   24.52    2.15
   2   8  -3    3.44    0.99
   2   8  -3    3.93    0.99
   3   9  -3    5.38    1.82
   3   9  -3    5.09    1.82
  -4 -10   3   90.57    4.63
   4  10  -3   89.48    4.63
  -5 -11   3    2.17    1.66
   5  11  -3    2.17    1.66
  -6 -12   3    0.43    1.66
   6  12  -3   -0.06    1.66
  -7 -13   3   67.51    3.97
   7  13  -3   69.15    3.97
  -8 -14   3    0.92    1.99
   8  14  -3    0.37    1.82
  -9 -15   3   23.44    2.48
 -10 -16   3    2.23    2.15
 -11 -17   3   -0.60    2.15
 -17 -13  -3    0.85    2.15
 -16 -12  -3    1.63    2.15
 -15 -11  -3    9.03    1.66
 -15 -11  -3    8.83    1.99
 -14 -10  -3   38.65    2.65
 -14 -10  -3   37.16    2.81
 -13  -9  -3   26.58    2.65
 -13  -9  -3   27.92    2.48
 -12  -8  -3    8.48    1.49
 -12  -8  -3    7.74    1.66
 -11  -7  -3  116.68    8.11
 -11  -7  -3  116.28    8.28
 -10  -6  -3   36.87    1.99
 -10  -6  -3   36.52    1.66
   9   5   3  215.53   14.07
  -9  -5  -3  228.15   15.06
  -9  -5  -3  222.09   14.90
   8   4   3  217.03   22.51
  -8  -4  -3  218.66   23.50
  -8  -4  -3  217.22   23.67
   7   3   3  126.19   12.41
  -7  -3  -3  126.49   13.08
  -7  -3  -3  129.02   13.08
   6   2   3    2.72    0.99
  -6  -2  -3    3.12    1.16
  -6  -2  -3    2.47    1.16
   5   1   3  448.61   25.49
  -5  -1  -3  446.77   26.48
  -5  -1  -3  439.82   26.81
  -4   0  -3   25.75    1.82
  -4   0  -3   25.60    1.82
  -3   1  -3   85.64    2.81
  -3   1  -3   85.79    2.65
  -1   3  -3  196.70   21.85
  -1  -5   3  195.28   16.22
   1   5  -3  195.08   15.89
  -2  -6   3   66.45    3.97
   2   6  -3   66.55    4.14
   2   6  -3   61.58    3.97
  -3  -7   3    0.35    0.83
   3   7  -3    0.10    0.99
   3   7  -3    0.05    0.83
  -4  -8   3   12.61    1.16
   4   8  -3   12.27    1.16
   4   8  -3   12.12    1.16
  -5  -9   3    2.84    1.49
   5   9  -3    3.29    1.66
  -6 -10   3   65.32    3.31
   6  10  -3   63.93    3.14
  -7 -11   3  180.64    7.78
   7  11  -3  180.83    7.45
  -8 -12   3    2.53    1.66
   8  12  -3    3.17    1.66
  -9 -13   3   29.98    2.98
   9  13  -3   30.87    2.98
 -10 -14   3    5.73    2.15
  10  14  -3    6.63    2.32
 -11 -15   3    0.37    1.99
 -12 -16   3    0.15    2.15
 -16 -14  -3    6.26    2.48
 -15 -13  -3    7.10    2.32
 -14 -12  -3    9.83    2.32
 -14 -12  -3    8.69    2.48
 -13 -11  -3   43.07    3.81
 -13 -11  -3   44.51    3.64
 -12 -10  -3   18.46    2.15
 -12 -10  -3   19.15    1.99
 -11  -9  -3   30.57    2.81
 -11  -9  -3   29.98    2.98
 -10  -8  -3    1.05    1.32
 -10  -8  -3    0.75    1.32
  -9  -7  -3   63.70    6.12
  -8  -6  -3   48.00    6.46
  -7  -5  -3  217.24   20.52
  -6  -4  -3   57.90    5.13
   5   3   3  409.96   23.34
  -5  -3  -3  399.93   24.66
   4   2   3   67.74    9.27
  -4  -2  -3   62.28    9.77
  -2   0  -3   24.51    0.33
  -2   0  -3   25.30    0.50
  -1   1  -3   18.90    3.31
  -1   1  -3   22.13    3.48
   0   2  -3  685.66   54.46
   0   2  -3  713.27   57.10
  -1  -3   3  407.96   34.59
   1   3  -3  417.00   35.09
  -2  -4   3    4.03    0.50
   2   4  -3    3.88    0.50
   2   4  -3    3.88    0.66
  -3  -5   3   24.86    4.14
   3   5  -3   24.01    4.14
   3   5  -3   23.57    4.14
  -4  -6   3  152.63    8.44
   4   6  -3  149.65    8.28
  -5  -7   3   14.60    0.66
   5   7  -3   14.46    0.99
   5   7  -3   14.55    0.33
  -6  -8   3   10.83    1.66
   6   8  -3   10.24    1.82
  -7  -9   3  246.90   13.08
   7   9  -3  246.70   12.74
  -8 -10   3    2.41    1.49
   8  10  -3    3.45    1.66
  -9 -11   3  108.22    5.79
   9  11  -3  111.35    5.79
 -10 -12   3   48.33    3.64
  10  12  -3   48.38    3.64
 -11 -13   3    1.13    1.66
  11  13  -3    0.98    1.66
 -12 -14   3    0.43    1.99
 -13 -15   3    0.99    2.15
 -14 -16   3    0.42    2.15
 -15 -15  -3    2.20    2.32
 -14 -14  -3    6.44    2.48
 -13 -13  -3   13.00    2.32
 -13 -13  -3   12.45    2.48
 -12 -12  -3   16.21    2.15
 -12 -12  -3   15.66    2.15
 -11 -11  -3   83.03    4.80
 -11 -11  -3   82.54    5.13
 -10 -10  -3    8.45    1.49
  -9  -9  -3    4.69    1.66
  -8  -8  -3   38.07    3.97
  -7  -7  -3   70.27    7.78
  -6  -6  -3    1.64    0.99
  -5  -5  -3  234.45   13.08
  -4  -4  -3  386.53   24.00
  -3  -3  -3   62.67    1.66
   1   1   3   19.15    3.14
  -1  -1  -3   19.89    2.98
   0   0   3   39.48    6.46
   0   0  -3   36.45    6.62
   0   0  -3   35.66    6.29
  -1  -1   3   36.61    5.30
   1   1  -3   35.52    5.30
   1   1  -3   36.81    5.46
  -2  -2   3  372.82   19.70
   2   2  -3  374.01   20.03
   2   2  -3  370.73   19.20
  -3  -3   3   66.88    5.96
   3   3  -3   65.69    6.12
  -4  -4   3    2.26    0.66
   4   4  -3    2.31    0.99
   4   4  -3    2.17    0.83
  -5  -5   3   42.46    4.80
   5   5  -3   38.98    4.63
   5   5  -3   40.57    4.80
  -6  -6   3   97.04    5.46
   6   6  -3   94.06    5.46
   6   6  -3   94.31    5.46
  -7  -7   3  405.89   24.00
   7   7  -3  404.60   23.34
  -8  -8   3   10.53    1.16
   8   8  -3   10.13    1.32
  -9  -9   3  151.47    9.27
   9   9  -3  151.02    8.94
 -10 -10   3   16.06    2.32
  10  10  -3   16.46    2.32
 -11 -11   3    0.38    1.49
  11  11  -3    0.58    1.49
 -12 -12   3    9.90    2.15
  12  12  -3   10.89    2.32
 -13 -13   3    0.09    1.82
  13  13  -3   -0.11    1.82
 -14 -14   3    1.21    2.15
 -15 -15   3    7.46    2.32
 -13 -15  -3   10.63    2.65
 -12 -14  -3    2.72    2.32
 -12 -14  -3    2.32    2.15
 -11 -13  -3   16.74    2.65
 -11 -13  -3   15.99    2.65
 -10 -12  -3    2.06    1.82
  -9 -11  -3   36.88    3.48
  -8 -10  -3   16.03    2.81
  -7  -9  -3   13.48    2.65
  -6  -8  -3    3.85    1.32
  -5  -7  -3  229.04   11.59
  -4  -6  -3   15.49    3.48
  -3  -5  -3   26.78    0.83
  -2  -4  -3  276.32   24.83
   0   2   3  714.56   60.41
   0  -2  -3  720.57   58.26
  -1   1   3   37.51    5.46
   1  -1  -3   36.32    5.30
   1  -1  -3   36.42    5.63
  -2   0   3   50.53    5.13
   2   0  -3   49.34    4.97
   2   0  -3   48.49    5.13
  -3  -1   3   42.07    0.66
   3   1  -3   42.27    0.66
   3   1  -3   42.17    0.83
  -4  -2   3  286.58   13.74
   4   2  -3  286.63   13.90
  -5  -3   3   15.23    0.66
   5   3  -3   14.88    0.66
  -6  -4   3    8.97    0.83
   6   4  -3    9.42    0.66
   6   4  -3    9.12    0.99
  -7  -5   3 1216.36   68.86
   7   5  -3 1231.31   66.70
   7   5  -3 1223.61   69.85
  -8  -6   3    7.53    0.83
   8   6  -3    7.73    0.99
  -9  -7   3  250.72   15.89
   9   7  -3  251.56   15.39
 -10  -8   3   29.55    3.14
 -10  -8   3   27.91    2.98
  10   8  -3   30.69    3.14
 -11  -9   3    7.20    1.82
  11   9  -3    7.00    1.82
 -12 -10   3    1.29    1.49
  12  10  -3    0.74    1.32
 -13 -11   3    0.15    1.49
  13  11  -3    0.00    1.49
 -14 -12   3   14.15    2.32
  14  12  -3   14.60    2.15
 -15 -13   3    1.08    1.99
 -16 -14   3   18.80    2.65
 -17 -15   3    0.12    2.32
 -12 -16  -3    2.86    2.32
 -11 -15  -3   12.78    2.32
 -11 -15  -3   14.02    2.48
 -10 -14  -3    1.17    2.15
  -9 -13  -3    5.12    2.15
  -8 -12  -3   26.01    3.64
  -7 -11  -3   20.95    3.31
  -6 -10  -3    0.84    1.49
  -5  -9  -3  114.63    5.79
  -4  -8  -3   74.43    4.30
  -3  -7  -3   76.74    2.65
  -2  -6  -3   17.66    2.65
   1   5   3   89.23    9.43
  -1  -5  -3   76.97    9.60
   0   4   3  223.32   16.72
   0  -4  -3  226.95   15.89
  -1   3   3  424.85   36.58
   1  -3  -3  417.25   35.26
  -2   2   3  373.91   19.53
   2  -2  -3  367.95   19.86
   2  -2  -3  373.07   18.87
  -3   1   3   41.88    0.83
   3  -1  -3   42.12    0.83
   3  -1  -3   42.72    0.83
  -4   0   3   22.81    2.15
   4   0  -3   22.01    2.32
   4   0  -3   21.86    2.32
  -5  -1   3   24.84    1.16
   5   1  -3   24.94    1.32
   5   1  -3   24.69    0.99
  -6  -2   3  193.92   15.72
   6   2  -3  191.19   15.89
  -7  -3   3  816.93   50.98
   7   3  -3  820.31   51.48
   7   3  -3  835.90   49.33
  -8  -4   3    4.17    1.16
   8   4  -3    3.78    0.99
   8   4  -3    4.08    1.32
  -9  -5   3  690.79   39.23
   9   5  -3  694.17   37.90
 -10  -6   3  106.21   10.76
 -10  -6   3  111.62   10.76
  10   6  -3  109.83   10.59
 -11  -7   3    0.41    0.66
 -11  -7   3    0.46    0.99
  11   7  -3    0.12    1.16
 -12  -8   3    2.29    1.32
  12   8  -3    3.13    1.49
 -13  -9   3   15.18    1.66
  13   9  -3   15.03    1.82
 -14 -10   3    0.80    1.49
  14  10  -3    0.55    1.49
 -15 -11   3    5.77    1.66
  15  11  -3    5.57    1.49
 -16 -12   3   57.31    4.30
  16  12  -3   57.31    4.14
 -17 -13   3    2.29    2.15
 -18 -14   3    1.01    2.15
 -10 -16  -3    0.25    2.48
  -9 -15  -3    3.60    2.48
  -8 -14  -3    3.64    2.32
  -7 -13  -3    7.41    2.65
  -6 -12  -3   15.11    2.32
  -5 -11  -3   67.72    3.64
  -4 -10  -3   11.35    2.65
  -3  -9  -3   72.39    2.15
  -2  -8  -3   50.79    4.47
  -1  -7  -3    6.26    1.49
   0   6   3   53.09    6.46
   0  -6  -3   55.58    6.62
   0  -6  -3   56.07    5.96
  -1   5   3  194.73   16.06
   1  -5  -3  192.65   15.23
  -2   4   3    4.33    0.83
   2  -4  -3    4.08    0.50
   2  -4  -3    4.08    0.66
  -3   3   3   66.38    6.12
   3  -3  -3   66.23    5.96
  -4   2   3  291.94   14.57
   4  -2  -3  288.77   14.73
   4  -2  -3  289.21   14.07
  -5   1   3   24.94    1.32
   5  -1  -3   25.29    1.32
   5  -1  -3   24.79    1.32
  -6   0   3   32.64    5.96
   6   0  -3   34.63    5.96
   6   0  -3   35.77    5.79
  -7  -1   3 1629.80  109.24
   7   1  -3 1701.85  110.73
  -8  -2   3   13.40    3.14
   8   2  -3   12.41    2.81
   8   2  -3   10.87    3.14
  -9  -3   3  392.06   21.35
   9   3  -3  406.56   20.86
 -10  -4   3  261.10   19.86
  10   4  -3  260.60   19.20
 -11  -5   3   10.84    1.32
  11   5  -3   11.53    1.49
 -12  -6   3   16.49    1.99
  12   6  -3   17.03    2.15
 -13  -7   3   -0.10    1.16
  13   7  -3    0.10    1.16
 -14  -8   3   23.94    2.98
  14   8  -3   23.79    2.98
 -15  -9   3   28.43    2.32
  15   9  -3   29.68    2.48
 -16 -10   3   51.04    4.47
  16  10  -3   50.10    4.30
 -17 -11   3    0.22    1.82
  17  11  -3    0.56    1.66
 -18 -12   3    2.81    2.15
 -19 -13   3   39.94    3.14
 -20 -14   3    0.91    2.32
  -8 -16  -3    5.05    2.48
  -7 -15  -3    2.42    2.65
  -6 -14  -3   -0.58    1.99
  -5 -13  -3   34.40    2.81
  -4 -12  -3   35.54    3.48
  -3 -11  -3   21.20    1.82
  -2 -10  -3   27.53    3.31
  -1  -9  -3    6.59    2.15
   0   8   3   46.23    2.98
   0  -8  -3   48.07    3.14
   0  -8  -3   47.32    2.32
  -1   7   3   25.51    2.32
   1  -7  -3   25.51    2.32
   1  -7  -3   25.11    1.66
  -2   6   3   66.75    4.63
   2  -6  -3   66.60    4.14
  -3   5   3   24.71    4.47
   3  -5  -3   25.16    4.14
   3  -5  -3   24.26    4.47
  -4   4   3    2.17    0.99
   4  -4  -3    1.92    0.66
   4  -4  -3    1.82    0.99
  -5   3   3   15.13    0.99
   5  -3  -3   14.93    0.83
  -6   2   3  192.77   16.22
   6  -2  -3  194.61   16.39
   6  -2  -3  194.96   15.72
  -7   1   3 1637.75  101.80
   7  -1  -3 1619.77  103.12
   7  -1  -3 1639.48   98.32
  -8   0   3   34.28    2.15
   8   0  -3   35.13    2.32
   8   0  -3   34.98    2.15
  -9  -1   3 1041.48   62.24
   9   1  -3 1094.41   62.90
 -10  -2   3   42.20    9.10
  10   2  -3   42.69    8.94
 -11  -3   3    6.30    0.66
  11   3  -3    6.69    0.83
 -12  -4   3   26.00    3.97
  12   4  -3   26.25    3.97
 -13  -5   3    1.26    0.99
  13   5  -3    1.16    0.99
 -14  -6   3    8.10    1.82
  14   6  -3    8.69    1.99
 -15  -7   3   11.52    1.49
  15   7  -3   11.62    1.49
 -16  -8   3  210.86   12.41
  16   8  -3  204.16   12.08
 -17  -9   3    1.33    1.66
  17   9  -3    0.13    1.49
 -18 -10   3    2.56    1.99
  18  10  -3    3.25    1.99
 -19 -11   3   26.87    2.81
  19  11  -3   27.17    2.65
 -20 -12   3    3.66    1.99
 -21 -13   3    4.52    2.32
  -7 -17  -3    1.11    2.81
  -6 -16  -3    1.36    2.48
  -5 -15  -3   23.52    2.81
  -4 -14  -3    4.66    2.32
  -3 -13  -3   14.40    1.99
  -2 -12  -3    9.13    2.32
  -1 -11  -3    5.69    1.66
   0 -10  -3   62.57    6.79
   1  -9  -3   73.51    4.80
   1  -9  -3   71.32    3.97
  -2   8   3    3.29    0.99
   2  -8  -3    3.39    1.16
   2  -8  -3    3.88    0.66
  -3   7   3    0.20    0.99
   3  -7  -3    0.30    0.66
   3  -7  -3    0.00    0.66
  -4   6   3  151.89    8.61
   4  -6  -3  149.41    8.61
   4  -6  -3  151.74    8.11
  -5   5   3   41.32    4.80
   5  -5  -3   39.38    4.97
   5  -5  -3   40.72    4.63
  -6   4   3    8.72    0.99
   6  -4  -3    9.32    1.16
   6  -4  -3    9.47    0.99
  -7   3   3  843.25   51.97
   7  -3  -3  812.81   49.99
  -8   2   3   12.71    3.31
   8  -2  -3   13.60    3.48
   8  -2  -3   13.26    3.31
  -9   1   3 1063.52   59.92
   9  -1  -3 1056.67   60.75
   9  -1  -3 1053.59   57.93
 -10   0   3  242.46   16.55
  10   0  -3  243.55   16.72
 -11  -1   3   24.09    1.66
  11   1  -3   24.04    1.82
  11   1  -3   23.79    1.32
 -12  -2   3   14.52    0.99
  12   2  -3   14.47    1.16
 -13  -3   3    5.33    0.99
  13   3  -3    5.13    1.16
 -14  -4   3   92.12    5.79
  14   4  -3   91.32    5.79
 -15  -5   3    9.34    1.32
  15   5  -3    9.49    1.49
 -16  -6   3  128.89    9.60
  16   6  -3  125.47    9.43
 -17  -7   3    3.92    1.32
  17   7  -3    3.97    1.32
 -18  -8   3   30.29    3.97
  18   8  -3   28.41    3.97
 -19  -9   3   82.43    5.13
  19   9  -3   79.74    5.13
 -20 -10   3    1.11    1.82
  20  10  -3    1.16    1.66
 -21 -11   3   -0.24    1.99
 -22 -12   3    2.48    2.32
  -5 -17  -3    5.41    2.65
  -4 -16  -3    6.07    2.65
  -3 -15  -3   12.15    2.32
  -2 -14  -3   12.85    2.32
  -1 -13  -3    9.99    2.48
   0 -12  -3    1.44    1.82
   1 -11  -3   15.08    2.32
   4  -8  -3   12.36    0.83
   4  -8  -3   12.27    1.16
  -5   7   3   14.60    0.83
   5  -7  -3   15.00    0.83
   5  -7  -3   15.00    1.16
  -6   6   3   93.51    5.46
   6  -6  -3   94.90    5.13
   6  -6  -3   94.90    5.79
  -7   5   3 1217.80   68.19
   7  -5  -3 1219.19   69.02
   7  -5  -3 1221.73   65.71
  -8   4   3    4.32    1.49
   8  -4  -3    4.03    1.32
   8  -4  -3    4.47    1.49
  -9   3   3  408.84   21.35
   9  -3  -3  388.43   20.69
 -10   2   3   40.36    8.94
  10  -2  -3   41.35    9.10
  10  -2  -3   42.25    8.77
 -11   1   3   23.64    1.66
  11  -1  -3   23.79    1.66
  11  -1  -3   24.24    1.82
 -12   0   3   30.45    5.13
  12   0  -3   30.60    5.13
 -13  -1   3    7.40    0.83
  13   1  -3    7.55    0.99
 -14  -2   3    2.19    0.83
  14   2  -3    1.94    0.99
 -15  -3   3    3.83    1.16
  15   3  -3    3.93    1.32
 -16  -4   3  453.44   27.15
  16   4  -3  452.85   26.32
 -17  -5   3    1.19    1.32
  17   5  -3    0.89    1.49
 -18  -6   3    6.37    2.15
  18   6  -3    6.02    2.32
 -19  -7   3  114.13    7.61
  19   7  -3  112.14    7.45
 -20  -8   3    5.62    1.66
  20   8  -3    4.88    1.49
 -21  -9   3    6.52    1.99
  21   9  -3    6.91    1.99
 -22 -10   3   14.87    1.99
  22  10  -3   15.47    1.99
 -23 -11   3    1.22    2.15
  -3 -17  -3    2.07    2.48
  -2 -16  -3    2.76    2.48
  -1 -15  -3    0.72    2.15
   0 -14  -3   20.58    2.81
   1 -13  -3   40.06    3.14
   2 -12  -3    0.92    1.66
  -3  11   3    1.16    1.32
   3 -11  -3    1.66    1.66
   6  -8  -3   11.82    2.32
   6  -8  -3   10.63    1.49
   7  -7  -3  404.70   21.19
   7  -7  -3  385.98   22.35
   8  -6  -3    7.98    1.32
   8  -6  -3    7.83    0.99
  -9   5   3  671.33   34.76
   9  -5  -3  680.02   33.44
   9  -5  -3  664.33   35.26
 -10   4   3  259.16   19.53
  10  -4  -3  257.82   19.86
  10  -4  -3  261.05   18.87
 -11   3   3    6.89    0.83
  11  -3  -3    6.69    0.99
  11  -3  -3    6.15    0.83
 -12   2   3   14.22    0.99
  12  -2  -3   14.27    0.99
  12  -2  -3   13.67    0.83
 -13   1   3    7.25    0.83
  13  -1  -3    7.65    0.83
  13  -1  -3    7.25    0.83
 -14   0   3  149.77   10.76
  14   0  -3  150.22   10.59
  14   0  -3  147.09   10.76
 -15  -1   3   38.43    3.81
  15   1  -3   37.93    3.97
 -16  -2   3  226.98   17.05
  16   2  -3  228.18   16.72
 -17  -3   3   24.92    1.82
  17   3  -3   24.28    1.99
 -18  -4   3   40.34    4.63
  18   4  -3   37.76    4.63
 -19  -5   3  107.48    9.43
  19   5  -3  105.89    9.27
 -20  -6   3    3.27    1.49
  20   6  -3    4.11    1.66
 -21  -7   3    5.51    1.66
  21   7  -3    5.66    1.66
 -22  -8   3    3.17    1.82
  22   8  -3    2.63    1.66
 -23  -9   3    6.43    2.15
  23   9  -3    6.73    2.15
 -24 -10   3   13.16    2.15
 -25 -11   3    2.12    2.32
  -1 -17  -3    0.14    2.65
   0 -16  -3    2.34    2.65
   1 -15  -3    5.43    2.32
   2 -14  -3   14.04    2.48
  -3  13   3    3.94    2.15
   3 -13  -3    3.84    2.32
  -4  12   3    2.32    1.66
   4 -12  -3    1.77    1.82
  -5  11   3    1.97    1.66
   5 -11  -3    2.32    1.82
   5 -11  -3    1.97    1.32
  -6  10   3   63.64    3.48
   6 -10  -3   65.12    2.98
   7  -9  -3  248.59   13.24
   7  -9  -3  251.87   14.23
   8  -8  -3   10.72    1.66
   8  -8  -3   10.43    1.16
  -9   7   3  228.03   12.74
   9  -7  -3  236.57   13.24
   9  -7  -3  246.55   12.41
  10  -6  -3  108.44   11.26
  10  -6  -3  110.87   10.59
  11  -5  -3   10.99    1.49
  11  -5  -3   11.48    1.82
  12  -4  -3   24.21    3.97
  12  -4  -3   25.80    3.81
 -13   3   3    4.84    0.83
  13  -3  -3    5.08    1.16
  13  -3  -3    5.13    1.16
 -14   2   3    1.74    0.83
  14  -2  -3    1.94    0.99
  14  -2  -3    1.74    0.50
 -15   1   3   35.00    3.31
  15  -1  -3   36.59    3.31
 -16   0   3  677.39   42.70
  16   0  -3  687.22   41.38
  16   0  -3  684.64   43.20
 -17  -1   3    0.85    0.99
  17   1  -3    0.31    1.16
 -18  -2   3   14.80    2.98
  18   2  -3   15.04    3.31
 -19  -3   3  279.31   18.54
  19   3  -3  278.72   18.04
 -20  -4   3   22.37    2.15
  20   4  -3   22.12    2.32
 -21  -5   3   -0.05    1.49
  21   5  -3    0.50    1.66
 -22  -6   3   33.13    1.99
  22   6  -3   34.42    2.15
 -23  -7   3   15.11    2.15
  23   7  -3   15.65    2.32
 -24  -8   3   -0.09    1.99
  24   8  -3    0.11    1.99
 -25  -9   3    8.48    2.32
  25   9  -3    7.74    2.15
 -26 -10   3    0.74    2.32
   1 -17  -3    1.61    2.65
   2 -16  -3    1.32    2.65
   3 -15  -3    1.25    2.32
   4 -14  -3   11.31    2.48
  -5  13   3    1.46    1.99
   5 -13  -3    2.21    2.32
  -6  12   3   -0.41    1.49
   6 -12  -3    0.18    1.82
   6 -12  -3    0.03    1.16
  -7  11   3  182.87    8.11
   7 -11  -3  180.68    7.45
   7 -11  -3  180.93    8.28
  -8  10   3    3.55    1.82
   8 -10  -3    2.76    1.99
   8 -10  -3    3.25    1.49
  -9   9   3  147.84    8.94
   9  -9  -3  149.83    8.61
   9  -9  -3  150.72    9.27
  10  -8  -3   29.15    3.64
  10  -8  -3   30.09    3.14
 -11   7   3    0.17    0.66
  11  -7  -3    0.32    1.32
  11  -7  -3   -0.03    0.99
  12  -6  -3   16.69    1.99
  12  -6  -3   16.04    2.32
 -13   5   3    1.21    0.50
  13  -5  -3    1.16    0.99
  13  -5  -3    0.71    1.16
  15  -3  -3    3.08    1.16
 -16   2   3  153.15    0.17
  16  -2  -3  153.10    0.33
 -17   1   3    0.65    0.17
  17  -1  -3    0.55    0.33
  17  -1  -3    0.45    0.66
 -19  -1   3  137.34   13.08
  19   1  -3  139.63   12.74
 -20  -2   3   21.39    1.49
  20   2  -3   22.43    1.99
 -21  -3   3   27.97    1.99
  21   3  -3   28.22    2.32
 -22  -4   3    3.84    1.49
  22   4  -3    3.54    1.66
 -23  -5   3    4.72    1.82
  23   5  -3    4.23    1.99
 -24  -6   3   30.24    2.48
  24   6  -3   31.13    2.65
 -25  -7   3   15.96    2.15
  25   7  -3   14.92    2.32
 -26  -8   3    4.17    2.15
  26   8  -3    4.86    2.15
 -27  -9   3   10.25    2.65
   3 -17  -3    0.87    2.65
   4 -16  -3    4.32    2.65
   5 -15  -3    0.71    2.48
  -6  14   3    4.43    1.99
   6 -14  -3    4.53    2.15
  -7  13   3   69.15    4.30
   7 -13  -3   70.15    4.63
  -8  12   3    2.63    1.82
   8 -12  -3    3.17    2.15
   8 -12  -3    3.03    1.49
  -9  11   3  106.63    5.63
   9 -11  -3  109.66    5.30
   9 -11  -3  108.87    6.12
 -10  10   3   16.71    2.65
  10 -10  -3   16.66    2.32
  10 -10  -3   15.27    2.65
 -11   9   3    7.40    2.15
  11  -9  -3    7.70    1.99
  11  -9  -3    7.15    2.32
 -12   8   3    3.23    1.66
  12  -8  -3    1.94    1.32
  12  -8  -3    2.44    1.82
 -13   7   3   -0.10    1.16
  13  -7  -3   -0.35    1.32
  13  -7  -3   -0.15    1.16
 -14   6   3    5.51    0.99
  14  -6  -3    7.55    1.66
  15  -5  -3    9.29    1.49
  17  -3  -3   21.60    1.16
 -18   2   3    5.11    0.17
  18  -2  -3    5.06    0.33
 -20   0   3    0.17    1.16
  20   0  -3    0.76    1.49
 -21  -1   3    0.84    1.32
  21   1  -3    0.64    1.49
 -22  -2   3    6.77    1.32
  22   2  -3    7.02    1.66
 -23  -3   3   32.50    2.15
  23   3  -3   33.89    2.65
 -24  -4   3    1.46    1.66
  24   4  -3    1.41    1.82
 -25  -5   3   12.51    1.99
  25   5  -3   11.81    2.32
 -26  -6   3    1.42    1.99
  26   6  -3   -0.37    1.99
 -27  -7   3   16.98    2.81
  27   7  -3   16.88    2.98
 -28  -8   3   14.69    2.65
  28   8  -3   14.89    2.81
   5 -17  -3    0.77    2.81
   6 -16  -3    2.97    2.65
  -7  15   3   40.80    2.81
   7 -15  -3   41.15    3.14
  -8  14   3   -0.12    1.99
   8 -14  -3    0.23    2.32
  -9  13   3   30.43    3.31
   9 -13  -3   30.18    3.48
   9 -13  -3   32.46    3.14
 -10  12   3   47.74    3.81
  10 -12  -3   46.84    3.48
  10 -12  -3   48.53    4.14
 -11  11   3    0.23    1.66
  11 -11  -3    0.13    1.32
  11 -11  -3    0.13    1.99
 -12  10   3    0.05    1.49
  12 -10  -3    0.59    1.32
  12 -10  -3    0.25    1.66
 -13   9   3   14.58    1.82
  13  -9  -3   14.98    1.99
  13  -9  -3   15.43    1.82
 -14   8   3   23.79    3.14
  14  -8  -3   23.74    2.98
 -15   7   3   11.02    1.49
  15  -7  -3   11.77    1.49
 -16   6   3  127.06    9.43
  16  -6  -3  124.87    9.10
 -17   5   3    0.84    1.32
  17  -5  -3    1.59    1.49
 -18   4   3   35.08    4.14
  18  -4  -3   38.40    4.14
 -19   3   3  273.60   17.88
  19  -3  -3  278.42   17.38
 -20   2   3   22.13    1.66
  20  -2  -3   21.98    1.82
 -21   1   3    1.24    1.32
  21  -1  -3    1.44    1.49
 -22   0   3   61.68    2.98
  22   0  -3   61.78    3.14
 -23  -1   3   19.07    2.48
  23   1  -3   18.58    2.65
 -24  -2   3    9.27    2.15
  24   2  -3    8.82    2.32
 -25  -3   3   24.60    2.15
  25   3  -3   24.75    2.32
 -26  -4   3    4.10    1.82
  26   4  -3    3.70    1.99
 -27  -5   3   12.03    2.65
  27   5  -3   13.47    2.98
 -28  -6   3   20.82    2.81
  28   6  -3   19.93    2.81
 -29  -7   3   -0.10    2.32
  29   7  -3   -0.30    2.32
   7 -17  -3   17.07    2.81
  -8  16   3    1.70    2.32
   8 -16  -3    0.51    2.65
  -9  15   3   23.24    2.65
   9 -15  -3   23.54    2.98
 -10  14   3    5.78    2.48
  10 -14  -3    6.83    2.81
 -11  13   3    0.98    1.99
  11 -13  -3    1.23    1.66
  11 -13  -3    0.34    2.15
 -12  12   3   10.64    2.65
  12 -12  -3   10.50    2.15
  12 -12  -3    9.65    2.65
 -13  11   3   -0.09    1.66
  13 -11  -3   -0.54    1.82
  13 -11  -3   -0.09    1.49
 -14  10   3    0.36    1.66
  14 -10  -3    0.01    1.82
  14 -10  -3    0.85    1.49
 -15   9   3   28.38    2.48
  15  -9  -3   29.72    2.48
 -16   8   3  206.44   12.41
  16  -8  -3  207.29   11.92
 -17   7   3    3.48    1.32
  17  -7  -3    4.22    1.49
 -18   6   3    5.47    2.15
  18  -6  -3    6.32    2.32
 -19   5   3  102.81    9.10
  19  -5  -3  107.23    8.94
 -20   4   3   20.73    1.82
  20  -4  -3   20.04    1.82
 -21   3   3   28.62    2.15
  21  -3  -3   27.68    2.15
 -22   2   3    6.47    1.32
  22  -2  -3    7.02    1.49
 -23   1   3   18.67    2.48
  23  -1  -3   18.92    2.65
 -24   0   3   39.87    3.97
  24   0  -3   40.91    4.30
 -25  -1   3   33.16    2.65
  25   1  -3   33.46    3.14
 -26  -2   3    3.27    1.82
  26   2  -3    4.31    2.15
 -27  -3   3   22.44    2.81
  27   3  -3   20.85    2.98
 -28  -4   3   19.44    2.98
  28   4  -3   18.44    3.31
 -29  -5   3    1.48    2.15
  29   5  -3    0.24    2.15
  30   6  -3    1.04    2.48
  -9  17   3   10.49    2.65
   9 -17  -3   11.03    3.14
 -10  16   3    1.53    2.32
  10 -16  -3    1.88    2.65
 -11  15   3    0.32    2.32
  11 -15  -3    0.52    2.48
 -12  14   3    0.48    2.15
  12 -14  -3    0.28    2.48
 -13  13   3    1.28    2.15
  13 -13  -3   -0.21    1.66
  13 -13  -3   -0.61    2.15
 -14  12   3   14.40    2.48
  14 -12  -3   14.05    2.81
  14 -12  -3   14.25    2.15
 -15  11   3    5.37    1.82
  15 -11  -3    6.31    2.15
  15 -11  -3    5.67    1.49
 -16  10   3   48.41    4.14
  16 -10  -3   49.20    4.63
  16 -10  -3   49.80    3.97
 -17   9   3    0.43    1.66
  17  -9  -3    0.23    1.66
 -18   8   3   28.95    4.14
  18  -8  -3   28.90    3.97
 -19   7   3  110.05    7.12
  19  -7  -3  112.29    7.12
 -20   6   3    3.47    1.32
  20  -6  -3    4.26    1.66
 -21   5   3   -0.25    1.32
  21  -5  -3   -0.15    1.49
 -22   4   3    3.34    1.32
  22  -4  -3    3.24    1.49
 -23   3   3   33.04    2.32
  23  -3  -3   32.25    2.32
 -24   2   3    8.57    1.99
  24  -2  -3    9.32    2.32
 -25   1   3   33.46    2.81
  25  -1  -3   34.30    3.14
 -26   0   3    0.50    1.66
  26   0  -3    0.30    1.82
 -27  -1   3   31.91    3.97
  27   1  -3   30.92    4.14
 -28  -2   3   38.21    3.81
  28   2  -3   36.57    3.81
 -29  -3   3    0.60    2.15
  29   3  -3   -0.49    2.15
 -30  -4   3    0.87    2.32
  30   4  -3    0.38    2.32
 -11  17   3    0.54    2.48
 -12  16   3   -0.15    2.32
  12 -16  -3   -0.35    2.65
 -13  15   3    0.35    2.15
  13 -15  -3    1.99    2.81
 -14  14   3    0.82    2.15
  14 -14  -3    1.06    2.65
  14 -14  -3    0.62    1.99
 -15  13   3    1.38    2.15
  15 -13  -3    1.03    1.82
  15 -13  -3    0.48    2.32
 -16  12   3   54.38    3.81
  16 -12  -3   55.92    3.81
  16 -12  -3   54.48    4.14
 -17  11   3   -0.23    1.82
  17 -11  -3   -0.03    1.66
  17 -11  -3   -0.23    2.15
 -18  10   3    2.96    2.15
  18 -10  -3    2.61    1.99
 -19   9   3   80.84    5.30
  19  -9  -3   80.19    5.13
 -20   8   3    4.98    1.66
  20  -8  -3    5.47    1.66
 -21   7   3    6.90    1.82
  21  -7  -3    5.76    1.66
 -22   6   3   33.38    1.99
  22  -6  -3   34.32    2.15
 -23   5   3    3.93    1.82
  23  -5  -3    5.12    2.15
 -24   4   3    0.87    1.49
  24  -4  -3    1.17    1.82
 -25   3   3   24.20    2.15
  25  -3  -3   24.85    2.32
 -26   2   3    3.57    1.82
  26  -2  -3    3.52    1.99
 -27   1   3   29.78    3.64
  27  -1  -3   32.06    4.14
 -28   0   3   18.79    3.64
  28   0  -3   17.99    3.81
 -29  -1   3    0.55    1.99
  29   1  -3    0.55    2.32
 -30  -2   3    2.88    2.15
  30   2  -3    2.98    2.48
 -31  -3   3    0.13    2.15
  31   3  -3   -0.27    2.32
 -14  16   3    1.81    2.48
  14 -16  -3    0.96    2.98
 -15  15   3    7.51    2.32
  15 -15  -3    8.11    2.81
 -16  14   3   17.65    2.65
  16 -14  -3   20.34    3.48
  16 -14  -3   19.34    2.48
 -17  13   3    2.29    2.32
  17 -13  -3    1.79    1.99
  17 -13  -3    1.25    2.65
 -18  12   3    3.11    2.32
  18 -12  -3    3.56    2.81
  18 -12  -3    3.96    2.15
 -19  11   3   27.47    3.14
  19 -11  -3   28.41    3.14
  19 -11  -3   27.96    3.64
 -20  10   3    1.56    1.82
  20 -10  -3    0.81    1.82
 -21   9   3    6.77    2.15
  21  -9  -3    6.52    1.99
 -22   8   3    2.58    1.66
  22  -8  -3    3.27    1.82
 -23   7   3   15.16    2.15
  23  -7  -3   15.95    2.32
 -24   6   3   31.33    2.65
  24  -6  -3   31.48    2.65
 -25   5   3   12.26    2.15
  25  -5  -3   12.31    2.15
 -26   4   3    3.25    1.82
  26  -4  -3    5.09    2.15
 -27   3   3   21.34    2.65
  27  -3  -3   21.44    2.98
 -28   2   3   37.76    3.64
  28  -2  -3   36.37    3.81
 -29   1   3    0.70    1.99
  29  -1  -3    0.60    2.32
 -30   0   3    0.87    2.15
  30   0  -3    1.72    2.48
 -31  -1   3    1.40    2.32
  31   1  -3    1.11    2.48
 -17  15   3    0.66    2.32
  17 -15  -3   -0.03    1.99
  17 -15  -3   -0.73    2.65
 -18  14   3    2.85    2.65
  18 -14  -3    1.16    2.81
  18 -14  -3    1.75    2.32
 -19  13   3   40.64    3.31
  19 -13  -3   40.14    3.81
  19 -13  -3   40.29    3.14
 -20  12   3    4.45    2.15
  20 -12  -3    3.76    1.99
  20 -12  -3    3.81    2.48
 -21  11   3    0.00    1.99
  21 -11  -3    0.45    2.15
 -22  10   3   15.32    1.99
  22 -10  -3   14.73    1.82
 -23   9   3    7.02    2.32
  23  -9  -3    6.73    2.15
 -24   8   3    0.66    1.99
  24  -8  -3    1.20    2.15
 -25   7   3   14.57    2.15
  25  -7  -3   15.76    2.32
 -26   6   3   -0.47    1.82
  26  -6  -3   -0.52    1.82
 -27   5   3   11.53    2.65
  27  -5  -3   13.02    2.81
 -28   4   3   19.54    3.14
  28  -4  -3   18.44    3.14
 -29   3   3   -0.34    1.99
  29  -3  -3    0.55    2.32
 -30   2   3    2.78    2.15
  30  -2  -3    3.08    2.48
 -31   1   3    1.40    2.15
  31  -1  -3    2.30    2.65
 -20  14   3    1.21    2.32
  20 -14  -3    0.57    2.15
  20 -14  -3    0.12    2.65
 -21  13   3    5.36    2.32
  21 -13  -3    4.71    2.81
  21 -13  -3    3.67    2.15
 -22  12   3    2.43    2.15
  22 -12  -3    2.14    2.65
  22 -12  -3    2.04    1.99
 -23  11   3    1.57    2.15
  23 -11  -3    1.27    1.99
 -24  10   3   13.60    2.15
  24 -10  -3   13.90    2.15
 -25   9   3    7.94    2.15
  25  -9  -3    8.18    2.15
 -26   8   3    3.82    1.99
  26  -8  -3    4.52    1.99
 -27   7   3   15.54    2.65
  27  -7  -3   15.79    2.65
 -28   6   3   20.47    2.98
  28  -6  -3   21.22    3.14
 -29   5   3    0.44    1.99
  29  -5  -3    1.33    2.15
 -30   4   3    1.02    2.15
  30  -4  -3    2.02    2.48
 -31   3   3    0.38    2.15
  31  -3  -3    0.38    2.48
 -24  12   3    0.55    2.15
 -25  11   3    1.93    2.15
  25 -11  -3    2.57    2.15
  25 -11  -3    3.22    2.81
 -26  10   3   -0.45    2.15
  26 -10  -3    0.40    2.32
 -27   9   3    8.51    2.48
  27  -9  -3   10.50    2.65
 -28   8   3   13.05    2.48
  28  -8  -3   15.09    2.81
 -29   7   3   -0.30    2.15
  29  -7  -3   -0.15    2.32
 -30   6   3    0.29    2.32
  26  -6   4    8.60    2.32
 -26   6  -4    8.50    2.65
  25  -7   4    7.46    2.48
 -25   7  -4    7.31    2.65
  24  -8   4   18.76    3.31
 -24   8  -4   19.11    3.64
  23  -9   4    2.47    2.48
 -23   9  -4    3.12    2.98
  22 -10   4   -0.53    2.15
 -22  10  -4    0.51    2.65
  21 -11   4    3.85    2.48
 -21  11  -4    3.00    2.65
  27  -3   4    1.81    2.32
 -27   3  -4    2.55    2.48
  26  -4   4   11.62    2.32
 -26   4  -4   11.18    2.48
  25  -5   4    7.04    2.65
 -25   5  -4    8.23    2.98
  24  -6   4   15.65    3.64
 -24   6  -4   16.50    3.97
  23  -7   4   10.59    2.65
 -23   7  -4   10.54    2.81
  22  -8   4    9.72    2.48
 -22   8  -4    9.03    2.48
  21  -9   4    2.32    2.32
 -21   9  -4    2.22    2.48
  20 -10   4    5.32    2.15
 -20  10  -4    4.87    2.32
  19 -11   4    1.71    2.32
 -19  11  -4    1.76    2.48
  18 -12   4    4.97    2.65
 -18  12  -4    4.52    2.48
  17 -13   4    2.09    2.32
 -17  13  -4    2.53    2.48
  16 -14   4   18.32    2.81
 -16  14  -4   19.01    2.98
  27  -1   4    1.19    2.15
 -27   1  -4    1.69    2.32
  26  -2   4   11.88    2.32
 -26   2  -4   11.78    2.32
  25  -3   4    8.89    2.48
 -25   3  -4    9.64    2.65
  24  -4   4   24.63    3.97
 -24   4  -4   25.58    4.14
  23  -5   4   11.13    2.81
 -23   5  -4   11.23    2.98
  22  -6   4    6.16    2.15
 -22   6  -4    6.80    2.48
  21  -7   4   11.52    2.32
 -21   7  -4   11.28    2.48
  20  -8   4    0.53    2.15
 -20   8  -4    0.83    2.32
  19  -9   4    0.15    1.99
 -19   9  -4    0.69    2.32
  18 -10   4    1.96    2.32
 -18  10  -4    1.62    2.48
  17 -11   4    7.89    2.32
 -17  11  -4    7.49    2.48
  16 -12   4   24.13    3.14
 -16  12  -4   24.73    3.14
  15 -13   4   11.82    2.81
 -15  13  -4   10.73    2.65
  14 -14   4   21.33    2.81
 -14  14  -4   20.78    2.65
  13 -15   4    0.46    2.48
 -13  15  -4    0.76    2.65
 -26   0  -4    9.35    2.15
  25  -1   4    7.55    2.48
 -25   1  -4    7.90    2.65
  24  -2   4   19.60    4.14
 -24   2  -4   19.95    4.47
  23  -3   4   15.31    2.65
 -23   3  -4   16.30    2.81
  22  -4   4   10.76    2.15
 -22   4  -4   11.81    2.32
  21  -5   4    6.63    2.15
 -21   5  -4    7.98    2.48
  20  -6   4    0.55    1.99
 -20   6  -4    0.50    2.15
  19  -7   4    6.62    1.99
 -19   7  -4    6.42    2.15
  18  -8   4    9.31    2.65
 -18   8  -4    9.06    2.48
  17  -9   4    3.15    1.99
 -17   9  -4    3.75    2.15
  16 -10   4   32.55    3.31
 -16  10  -4   31.70    3.31
  15 -11   4    7.85    2.65
 -15  11  -4    7.11    2.65
  14 -12   4   42.52    3.14
 -14  12  -4   44.40    3.31
  13 -13   4    0.81    2.32
 -13  13  -4    1.05    2.32
  12 -14   4    2.80    2.48
 -12  14  -4    2.16    2.32
  11 -15   4    1.38    2.65
 -11  15  -4    2.37    2.65
  10 -16   4    0.66    2.48
 -27  -3  -4    1.21    1.99
 -25  -1  -4    7.20    2.32
  24   0   4   46.33    5.79
 -24   0  -4   47.82    5.96
  23  -1   4   10.29    2.65
 -23   1  -4    9.84    2.65
  22  -2   4    7.77    1.99
 -22   2  -4    7.17    1.99
  21  -3   4   21.74    2.32
 -21   3  -4   21.20    2.32
  20  -4   4    0.47    1.99
 -20   4  -4    0.96    1.99
  19  -5   4    3.43    1.82
 -19   5  -4    2.53    1.99
  18  -6   4    7.60    2.81
 -18   6  -4    7.35    2.81
  17  -7   4   21.63    2.65
 -17   7  -4   21.33    2.65
  16  -8   4   48.59    3.97
 -16   8  -4   50.23    3.97
  15  -9   4   44.15    4.14
 -15   9  -4   44.49    4.14
  14 -10   4   43.82    2.98
 -14  10  -4   42.87    2.98
  13 -11   4    0.67    2.15
 -13  11  -4    0.08    1.99
  12 -12   4    0.60    2.15
 -12  12  -4    0.35    1.99
  11 -13   4    2.11    2.65
 -11  13  -4    2.31    2.48
  10 -14   4    0.81    2.32
 -10  14  -4    0.66    2.15
   9 -15   4    8.26    2.48
   8 -16   4    0.94    2.48
 -26  -4  -4   10.13    1.99
 -25  -3  -4    9.49    2.15
 -24  -2  -4   21.34    4.30
 -24  -2  -4   18.75    3.97
 -23  -1  -4   10.98    2.65
 -23  -1  -4   10.64    2.32
  22   0   4   22.02    2.48
 -22   0  -4   21.97    1.99
 -22   0  -4   22.22    2.48
  21  -1   4    6.11    1.82
 -21   1  -4    5.81    1.32
 -21   1  -4    6.50    1.82
  20  -2   4    0.60    1.82
 -20   2  -4    0.35    1.82
  19  -3   4   18.14    1.99
 -19   3  -4   17.79    1.99
  18  -4   4   16.12    3.14
 -18   4  -4   15.62    3.14
  17  -5   4   23.41    2.65
 -17   5  -4   22.92    2.65
  16  -6   4  112.07    7.12
 -16   6  -4  113.51    7.28
  15  -7   4   23.74    3.48
 -15   7  -4   24.34    3.48
  14  -8   4   71.27    3.14
 -14   8  -4   72.86    3.14
  13  -9   4    7.28    2.32
 -13   9  -4    6.98    2.15
  12 -10   4   11.11    2.48
 -12  10  -4   11.56    2.48
  11 -11   4    2.04    2.32
 -11  11  -4    2.39    2.32
  10 -12   4    3.25    2.32
 -10  12  -4    2.76    2.15
   9 -13   4   20.33    2.65
  -9  13  -4   22.22    2.81
   8 -14   4    0.94    2.15
  -8  14  -4    0.64    2.15
   7 -15   4   20.06    2.48
   6 -16   4    6.29    2.48
 -26  -6  -4    7.95    2.15
 -25  -5  -4    6.34    2.32
 -24  -4  -4   24.63    3.81
 -23  -3  -4   16.55    2.48
 -23  -3  -4   16.40    2.65
 -22  -2  -4    7.67    1.49
 -22  -2  -4    7.57    1.82
  21   1   4    6.16    1.66
 -21  -1  -4    6.30    1.82
 -21  -1  -4    6.50    1.32
  20   0   4    0.05    1.66
 -20   0  -4    0.05    1.16
 -20   0  -4    0.55    1.66
  19  -1   4    3.92    1.66
 -19   1  -4    4.56    1.16
 -19   1  -4    4.47    1.66
  18  -2   4   25.58    3.48
 -18   2  -4   25.09    3.48
 -18   2  -4   23.65    2.98
  17  -3   4   39.44    2.81
 -17   3  -4   40.29    2.81
  16  -4   4   95.28    8.44
 -16   4  -4   94.98    8.77
  15  -5   4   49.07    4.80
 -15   5  -4   50.41    4.97
  14  -6   4  148.84    6.95
 -14   6  -4  150.87    7.12
  13  -7   4    1.02    1.82
 -13   7  -4    0.08    1.66
  12  -8   4   26.93    2.65
 -12   8  -4   27.62    2.65
  11  -9   4    6.64    2.81
 -11   9  -4    6.69    2.81
  10 -10   4    6.66    1.99
 -10  10  -4    7.41    1.99
   9 -11   4   31.49    3.14
  -9  11  -4   33.63    3.14
   8 -12   4    9.08    1.99
  -8  12  -4   10.62    2.15
   7 -13   4   37.68    3.14
  -7  13  -4   38.38    3.31
   6 -14   4    6.05    2.32
  -6  14  -4    6.25    2.48
   5 -15   4    1.84    1.99
   4 -16   4   11.29    2.32
   3 -17   4    2.98    2.15
 -25  -7  -4    7.71    2.15
 -24  -6  -4   15.60    3.31
 -23  -5  -4   11.53    2.48
 -22  -4  -4   11.36    1.82
 -22  -4  -4   11.61    1.82
 -21  -3  -4   22.14    1.99
 -21  -3  -4   21.94    1.82
 -20  -2  -4    0.30    1.32
 -20  -2  -4    0.30    1.66
  19   1   4    4.27    1.49
 -19  -1  -4    3.97    1.16
 -19  -1  -4    3.97    1.49
  18   0   4    3.16    1.82
 -18   0  -4    2.97    1.49
 -18   0  -4    3.11    1.82
  17  -1   4   37.11    2.81
 -17   1  -4   36.81    2.81
 -17   1  -4   35.52    2.48
  16  -2   4  235.86   13.41
 -16   2  -4  232.44   13.90
 -16   2  -4  226.97   13.41
  15  -3   4   79.99    7.12
 -15   3  -4   79.24    7.28
 -15   3  -4   76.16    6.79
  14  -4   4  149.96    6.62
 -14   4  -4  155.27    6.95
 -14   4  -4  149.71    6.29
  13  -5   4    7.56    2.15
 -13   5  -4    7.01    1.99
  12  -6   4    1.97    1.82
 -12   6  -4    1.63    1.66
  11  -7   4    3.62    2.32
 -11   7  -4    4.71    2.15
  10  -8   4    0.59    1.66
 -10   8  -4    0.93    1.49
   9  -9   4   49.78    3.14
  -9   9  -4   50.68    3.14
   8 -10   4   -0.04    1.66
  -8  10  -4    0.56    1.82
   7 -11   4   81.90    3.81
  -7  11  -4   85.68    4.30
   6 -12   4   13.62    2.81
  -6  12  -4   14.96    2.98
   5 -13   4    9.75    2.32
  -5  13  -4   10.19    2.32
   4 -14   4    4.10    2.15
   3 -15   4    1.56    1.99
   2 -16   4    6.38    1.99
   1 -17   4    0.95    1.99
 -24  -8  -4   17.52    2.65
 -23  -7  -4   10.74    2.32
 -22  -6  -4    6.46    1.82
 -21  -5  -4    6.78    1.82
 -21  -5  -4    7.68    1.82
 -20  -4  -4    1.56    1.66
 -20  -4  -4    0.91    1.49
 -19  -3  -4   18.24    1.66
 -19  -3  -4   17.69    1.49
  18   2   4   25.63    3.48
 -18  -2  -4   25.98    3.48
 -18  -2  -4   25.53    3.64
  17   1   4   36.56    2.65
 -17  -1  -4   37.56    2.81
 -17  -1  -4   36.07    2.65
  16   0   4   40.15    5.30
 -16   0  -4   39.95    5.13
 -16   0  -4   37.82    5.30
  15  -1   4   57.06    5.30
 -15   1  -4   58.90    5.63
 -15   1  -4   57.16    5.13
  14  -2   4  240.57    9.77
 -14   2  -4  247.82   10.10
 -14   2  -4  235.21    9.60
  13  -3   4   30.42    3.48
 -13   3  -4   30.12    3.48
 -13   3  -4   28.83    2.81
  12  -4   4   45.68    3.81
 -12   4  -4   45.14    3.81
  10  -6   4    2.31    1.66
 -10   6  -4    2.21    0.33
   9  -7   4   55.35    4.47
  -9   7  -4   56.89    4.47
   8  -8   4   16.76    1.49
  -8   8  -4   17.01    1.66
   7  -9   4   90.31    4.97
  -7   9  -4   91.75    5.13
   6 -10   4   48.25    4.47
  -6  10  -4   48.40    4.63
   5 -11   4    4.88    1.99
  -5  11  -4    4.19    1.82
   4 -12   4   36.58    3.48
  -4  12  -4   38.41    3.64
   3 -13   4    1.68    1.82
  -3  13  -4    1.48    1.99
   2 -14   4    4.27    1.99
   1 -15   4   10.82    1.99
   0 -16   4    2.81    1.99
  -1 -17   4    1.37    1.99
 -23  -9  -4    2.67    2.32
 -22  -8  -4    9.33    2.15
 -21  -7  -4   11.23    1.99
 -20  -6  -4    1.25    1.82
 -20  -6  -4    1.30    1.66
 -19  -5  -4    3.47    1.66
 -19  -5  -4    2.88    1.49
 -18  -4  -4   14.58    2.65
 -18  -4  -4   17.11    2.81
 -17  -3  -4   41.08    2.81
 -17  -3  -4   39.64    2.48
  16   2   4  235.57   13.90
 -16  -2  -4  234.57   14.23
 -16  -2  -4  233.83   14.57
  15   1   4   59.35    5.30
 -15  -1  -4   57.16    5.46
 -15  -1  -4   57.46    5.30
  14   0   4   86.37    4.14
 -14   0  -4   87.76    4.14
 -14   0  -4   85.23    3.97
  13  -1   4    2.70    1.32
 -13   1  -4    3.04    0.83
 -13   1  -4    3.14    1.32
  12  -2   4   12.19    2.98
 -12   2  -4   11.69    2.98
  11  -3   4   60.96    6.79
 -11   3  -4   59.57    6.46
 -11   3  -4   60.61    6.79
  10  -4   4    4.61    1.66
 -10   4  -4    4.86    0.99
   9  -5   4  206.25   12.91
  -9   5  -4  213.79   12.91
   8  -6   4   20.11    1.66
  -8   6  -4   20.81    0.99
  -8   6  -4   21.45    1.66
  -5   9  -4   22.31    2.32
  -4  10  -4   23.65    3.31
  -3  11  -4   26.07    2.15
  -3  11  -4   26.27    2.15
  -2  12  -4   25.78    2.81
  -2  12  -4   24.83    2.81
  -1  13  -4   11.25    1.99
   0  14  -4    3.11    2.32
 -22 -10  -4    0.12    2.15
 -21  -9  -4    2.32    1.99
 -20  -8  -4    0.14    1.82
 -19  -7  -4    6.32    1.66
 -19  -7  -4    6.32    1.66
 -18  -6  -4    8.39    2.48
 -18  -6  -4    7.60    2.48
 -17  -5  -4   24.80    2.48
 -17  -5  -4   23.31    2.48
 -16  -4  -4   96.92    8.77
 -16  -4  -4   96.62    8.77
  15   3   4   83.66    7.61
 -15  -3  -4   81.18    7.94
 -15  -3  -4   82.37    7.94
  14   2   4  244.35   10.76
 -14  -2  -4  251.80   11.26
 -14  -2  -4  243.01   11.09
  13   1   4    3.09    1.16
 -13  -1  -4    2.94    0.99
 -13  -1  -4    2.65    1.16
  12   0   4   93.19    6.29
 -12   0  -4   93.09    6.29
 -12   0  -4   92.79    6.46
  11  -1   4   12.85    2.65
 -11   1  -4   12.10    2.65
  10  -2   4    2.11    1.16
 -10   2  -4    2.56    0.99
 -10   2  -4    2.46    0.50
   9  -3   4  195.18   14.90
  -9   3  -4  205.36   15.06
  -9   3  -4  205.66   15.56
   8  -4   4    5.61    1.49
  -8   4  -4    4.87    0.66
  -8   4  -4    4.87    0.99
   7  -5   4  348.48   23.50
  -7   5  -4  361.00   24.50
  -7   5  -4  364.47   23.83
  -6   6  -4  106.10    8.77
  -6   6  -4  106.59    9.27
  -5   7  -4   15.42    1.99
  -4   8  -4   46.15    3.97
  -4   8  -4   45.36    3.81
  -3   9  -4    1.18    1.32
  -3   9  -4    1.03    1.32
  -2  10  -4   16.00    2.15
  -2  10  -4   16.75    2.15
  -1  11  -4    7.46    1.66
  -1  11  -4    8.21    1.66
   0  12  -4   14.73    1.99
   0  12  -4   13.98    1.99
   1  13  -4    4.26    1.99
   2  14  -4   17.30    2.48
   3  15  -4    9.21    2.48
   4  16  -4    1.76    2.48
 -21 -11  -4    2.46    2.15
 -20 -10  -4    4.47    1.99
 -19  -9  -4    0.89    1.99
 -18  -8  -4    9.31    1.99
 -18  -8  -4    8.91    2.15
 -17  -7  -4   21.73    2.32
 -17  -7  -4   21.78    2.15
 -16  -6  -4  112.42    7.28
 -16  -6  -4  116.09    7.12
 -15  -5  -4   49.86    4.47
 -15  -5  -4   48.97    4.63
 -14  -4  -4  154.38    6.79
 -14  -4  -4  149.51    6.62
  13   3   4   30.37    3.14
 -13  -3  -4   29.23    3.31
 -13  -3  -4   30.37    3.31
  12   2   4   12.84    2.81
 -12  -2  -4   11.79    2.81
 -12  -2  -4   12.64    2.81
  11   1   4   13.24    2.65
 -11  -1  -4   12.25    2.65
 -11  -1  -4   12.40    2.48
  10   0   4    1.88    1.16
 -10   0  -4    2.03    0.99
   9  -1   4  139.41    9.93
  -9   1  -4  140.85    9.93
  -9   1  -4  145.13   10.43
   8  -2   4   67.27    2.15
  -8   2  -4   66.03    1.49
  -8   2  -4   67.82    1.99
   7  -3   4  404.46   30.95
  -7   3  -4  414.14   31.61
  -6   4  -4  289.47   26.32
  -5   5  -4   37.23    2.48
  -5   5  -4   37.63    2.48
  -4   6  -4   39.89    2.48
  -3   7  -4   31.26    2.65
  -3   7  -4   31.60    2.65
  -2   8  -4   46.89    3.31
  -2   8  -4   47.44    3.48
  -1   9  -4   84.36    3.31
  -1   9  -4   84.11    3.64
   0  10  -4    3.28    1.49
   0  10  -4    3.97    1.66
   1  11  -4    5.92    1.49
   1  11  -4    6.42    1.49
  -2 -12   4   17.76    1.99
   2  12  -4   17.36    2.32
  -3 -13   4   37.55    3.48
   3  13  -4   37.60    3.64
   4  14  -4    6.82    2.32
   5  15  -4    9.14    2.48
   6  16  -4    1.08    2.32
 -19 -11  -4    1.81    2.15
 -18 -10  -4    1.52    2.15
 -17  -9  -4    3.40    1.66
 -17  -9  -4    3.95    1.82
 -16  -8  -4   48.99    3.14
 -16  -8  -4   48.00    3.48
 -15  -7  -4   23.25    2.81
 -15  -7  -4   23.65    2.98
 -14  -6  -4  152.46    6.95
 -14  -6  -4  149.04    6.95
 -13  -5  -4    8.35    1.99
 -13  -5  -4    7.90    1.99
  12   4   4   44.19    3.14
 -12  -4  -4   46.28    3.48
 -12  -4  -4   43.75    3.48
 -11  -3  -4   60.46    6.79
 -11  -3  -4   61.60    6.79
  10   2   4    2.41    0.50
 -10  -2  -4    2.81    0.99
 -10  -2  -4    2.36    0.83
  -9  -1  -4  121.49    5.63
   8   0   4   15.38    1.32
  -8   0  -4   16.07    1.32
  -8   0  -4   16.22    0.99
   7  -1   4  305.39   23.01
  -7   1  -4  301.67   23.50
  -7   1  -4  305.20   24.00
  -6   2  -4   79.92    9.43
  -6   2  -4   82.90    9.10
  -5   3  -4   98.41    7.12
  -5   3  -4   98.06    7.28
  -4   4  -4  465.93   28.30
  -4   4  -4  464.29   29.63
  -3   5  -4   71.69    4.47
  -3   5  -4   72.68    4.47
  -2   6  -4   28.29    1.16
  -1   7  -4   73.62    2.48
  -1   7  -4   75.36    2.48
   0   8  -4   70.79    2.98
   0   8  -4   71.14    2.98
  -1  -9   4   49.39    1.16
   1   9  -4   49.48    1.49
   1   9  -4   49.09    1.66
  -2 -10   4   40.08    3.14
   2  10  -4   40.72    3.31
   2  10  -4   41.07    3.48
  -3 -11   4   39.94    3.14
   3  11  -4   39.49    3.48
   3  11  -4   39.29    3.48
  -4 -12   4    2.08    1.49
   4  12  -4    2.18    1.82
  -5 -13   4   50.94    3.48
   5  13  -4   50.64    3.64
  -6 -14   4    4.12    1.82
   6  14  -4    3.87    2.15
   7  15  -4    1.92    2.32
   8  16  -4    2.89    2.32
 -18 -12  -4    4.28    2.32
 -17 -11  -4    7.44    2.15
 -16 -10  -4   32.70    3.14
 -16 -10  -4   32.79    2.81
 -15  -9  -4   45.78    4.30
 -15  -9  -4   45.04    3.81
 -14  -8  -4   74.20    2.98
 -14  -8  -4   72.17    3.14
 -13  -7  -4    0.97    1.49
 -13  -7  -4    1.02    1.49
 -12  -6  -4    1.97    1.49
 -12  -6  -4    2.42    1.66
 -11  -5  -4   25.69    4.47
 -11  -5  -4   26.48    4.30
  10   4   4    5.06    0.99
 -10  -4  -4    3.92    1.32
   9   3   4  198.36   14.90
  -9  -3  -4  207.10   15.72
  -9  -3  -4  205.21   15.56
   8   2   4   68.16    1.99
  -8  -2  -4   66.92    1.99
  -8  -2  -4   66.57    2.15
  -7  -1  -4  309.91   24.83
  -7  -1  -4  304.80   24.33
  -6   0  -4  354.84   29.96
  -6   0  -4  365.07   29.46
  -5   1  -4   11.19    0.83
  -5   1  -4   10.89    1.32
  -5   1  -4   11.09    1.16
  -4   2  -4    4.26    1.16
  -4   2  -4    4.21    1.32
  -3   3  -4    0.60    0.83
  -3   3  -4    0.94    0.83
  -2   4  -4  438.10   25.82
  -2   4  -4  444.26   24.66
  -1   5  -4   44.55    1.32
   0  -6   4    4.28    0.66
   0   6  -4    3.98    1.16
   0   6  -4    4.33    1.16
  -1  -7   4   41.02    0.83
   1   7  -4   41.67    1.32
   1   7  -4   41.91    1.16
  -2  -8   4   93.85    4.63
   2   8  -4   93.60    4.97
   2   8  -4   93.15    4.80
  -3  -9   4   47.98    4.30
   3   9  -4   48.33    4.47
   3   9  -4   46.79    4.47
  -4 -10   4   21.81    2.15
   4  10  -4   21.91    2.48
   4  10  -4   23.15    2.48
  -5 -11   4   40.45    2.98
   5  11  -4   40.35    3.31
  -6 -12   4    1.82    1.49
   6  12  -4    1.92    1.82
  -7 -13   4   17.99    2.98
   7  13  -4   18.59    3.31
  -8 -14   4    6.78    1.99
   8  14  -4    6.98    2.15
  -9 -15   4    1.01    1.99
   9  15  -4   -0.08    2.15
 -17 -13  -4    2.53    2.15
 -16 -12  -4   23.83    2.65
 -15 -11  -4    6.86    2.32
 -15 -11  -4    7.31    2.15
 -14 -10  -4   41.63    2.65
 -14 -10  -4   42.97    2.32
 -13  -9  -4    7.73    2.15
 -13  -9  -4    7.33    1.99
 -12  -8  -4   27.82    2.32
 -12  -8  -4   27.08    2.48
 -11  -7  -4    4.36    1.82
 -11  -7  -4    4.17    2.15
 -10  -6  -4    2.31    1.16
 -10  -6  -4    1.91    1.16
  -9  -5  -4  215.63   14.73
  -9  -5  -4  219.11   14.73
   8   4   4    5.22    0.83
  -8  -4  -4    5.22    1.16
  -8  -4  -4    4.97    1.16
   7   3   4  418.56   31.45
  -7  -3  -4  407.89   33.10
   6   2   4   88.21    9.93
  -6  -2  -4   82.80   10.26
  -5  -1  -4   10.89    1.16
  -5  -1  -4   11.14    1.16
  -4   0  -4  509.36   26.81
  -4   0  -4  506.78   25.49
  -4   0  -4  517.05   26.32
  -3   1  -4  135.89   11.09
  -3   1  -4  138.82   11.42
  -2   2  -4   25.19    0.66
  -2   2  -4   25.39    0.83
  -1   3  -4  477.33   17.88
  -1   3  -4  476.99   18.70
   0   4  -4  462.74   30.12
   0   4  -4  461.20   28.80
  -1  -5   4   23.44    0.66
   1   5  -4   23.34    0.99
  -2  -6   4   31.76    2.15
   2   6  -4   30.71    2.48
   2   6  -4   31.06    2.48
  -3  -7   4  113.84    7.12
   3   7  -4  111.41    7.12
   3   7  -4  112.20    7.28
  -4  -8   4   10.01    1.66
   4   8  -4   10.51    2.15
   4   8  -4   10.86    1.99
  -5  -9   4   66.07    3.64
   5   9  -4   65.52    3.81
   5   9  -4   65.12    3.81
  -6 -10   4   22.82    1.82
   6  10  -4   22.32    1.99
  -7 -11   4   32.51    3.48
   7  11  -4   34.10    3.64
  -8 -12   4   26.86    2.48
   8  12  -4   28.55    2.98
  -9 -13   4   10.77    2.15
   9  13  -4   13.06    2.48
 -10 -14   4    0.66    1.82
  10  14  -4    0.81    1.99
 -11 -15   4    2.32    1.99
  11  15  -4    2.67    2.15
 -12 -16   4    2.02    2.15
 -16 -14  -4   18.61    2.65
 -15 -13  -4   11.27    2.65
 -14 -12  -4   43.41    2.98
 -14 -12  -4   43.81    2.81
 -13 -11  -4    0.72    1.82
 -13 -11  -4    0.57    1.99
 -12 -10  -4   11.02    2.32
 -12 -10  -4   11.51    2.15
 -11  -9  -4    6.19    2.65
 -11  -9  -4    6.94    2.48
 -10  -8  -4    0.64    1.32
  -9  -7  -4   59.77    5.13
  -8  -6  -4   21.01    1.49
  -7  -5  -4  362.79   25.32
   6   4   4  300.15   26.48
  -6  -4  -4  293.64   27.97
   5   3   4  100.14    6.95
  -5  -3  -4   97.41    7.45
  -4  -2  -4    4.26    0.99
  -4  -2  -4    3.07    0.99
  -3  -1  -4  136.73   10.43
  -3  -1  -4  133.65   10.92
  -2   0  -4  252.40   10.26
  -2   0  -4  255.68   10.76
  -1   1  -4  192.92    6.12
  -1   1  -4  190.73    5.96
   0   2  -4    5.32    0.83
   0   2  -4    5.67    0.83
   1   3  -4  192.81    9.10
   1   3  -4  202.94    9.43
   2   4  -4  295.54   14.07
   2   4  -4  286.70   14.57
  -3  -5   4  278.72   21.02
   3   5  -4  269.68   20.52
  -4  -6   4   21.79    1.49
   4   6  -4   22.23    1.66
   4   6  -4   22.48    1.82
  -5  -7   4  119.46    5.79
   5   7  -4  117.82    5.79
   5   7  -4  118.62    5.96
  -6  -8   4   17.30    1.49
   6   8  -4   16.91    1.66
   6   8  -4   17.65    1.49
  -7  -9   4   17.57    2.81
   7   9  -4   17.67    2.98
  -8 -10   4   16.62    2.32
   8  10  -4   16.17    2.48
  -9 -11   4   33.22    2.15
   9  11  -4   33.32    2.32
 -10 -12   4    8.96    1.99
  10  12  -4   10.50    2.32
 -11 -13   4   23.71    2.32
  11  13  -4   23.56    2.48
 -12 -14   4    1.82    1.99
  12  14  -4    1.72    2.15
 -13 -15   4    2.42    1.99
 -14 -14  -4   20.04    2.48
 -13 -13  -4    0.21    2.15
 -13 -13  -4    1.20    2.15
 -12 -12  -4    1.00    1.99
 -12 -12  -4    0.65    1.99
 -11 -11  -4    2.79    2.15
 -11 -11  -4    1.45    2.15
 -10 -10  -4    6.86    1.82
  -9  -9  -4   50.18    2.98
  -8  -8  -4   16.56    1.49
  -7  -7  -4  168.77    9.10
  -6  -6  -4  108.98    9.77
  -5  -5  -4   38.37    2.65
   4   4   4  477.55   29.96
  -4  -4  -4  470.75   31.61
  -3  -3  -4    0.75    0.50
  -3  -3  -4    0.80    0.66
  -2  -2  -4   25.19    0.66
  -2  -2  -4   25.14    0.50
   1   1   4  190.93    5.79
  -1  -1  -4  190.13    5.63
  -1  -1  -4  191.82    5.96
   0   0   4  121.81    4.80
   0   0  -4  119.77    4.63
   0   0  -4  119.82    4.80
  -1  -1   4  146.60    2.81
   1   1  -4  145.41    2.98
  -2  -2   4   75.89    5.79
   2   2  -4   75.05    5.96
  -3  -3   4  338.48   23.01
   3   3  -4  335.26   22.35
  -4  -4   4   18.14    2.48
   4   4  -4   17.05    2.48
  -5  -5   4  357.80   18.37
   5   5  -4  349.06   18.70
   5   5  -4  358.05   18.04
  -6  -6   4   61.82    2.15
   6   6  -4   61.12    2.48
   6   6  -4   58.74    1.99
  -7  -7   4  101.07    8.28
   7   7  -4   98.19    8.28
  -8  -8   4   45.69    3.14
   8   8  -4   42.26    3.14
  -9  -9   4    7.68    1.32
   9   9  -4    7.34    1.49
 -10 -10   4    5.83    1.66
  10  10  -4    6.23    1.82
 -11 -11   4   41.39    2.48
  11  11  -4   40.05    2.48
 -12 -12   4   15.65    2.32
  12  12  -4   17.09    2.81
 -13 -13   4   12.61    2.15
  13  13  -4   12.96    2.32
 -14 -14   4    2.56    2.15
  14  14  -4    2.81    2.15
 -15 -15   4    4.18    2.32
 -13 -15  -4    0.31    2.32
 -12 -14  -4    1.91    2.15
 -12 -14  -4    2.06    2.32
 -11 -13  -4    1.71    2.32
 -10 -12  -4    2.86    1.99
  -9 -11  -4   34.77    3.48
  -8 -10  -4    1.15    1.82
  -7  -9  -4   92.50    5.30
  -6  -8  -4   27.50    4.47
  -5  -7  -4   14.73    1.82
  -4  -6  -4   47.83    4.30
  -3  -5  -4   73.18    4.80
   1   3   4  478.57   18.70
  -1  -3  -4  477.43   17.88
  -1  -3  -4  478.87   19.03
   0   2   4    5.57    0.83
   0  -2  -4    6.12    0.99
   0  -2  -4    5.82    0.83
  -1   1   4  147.05    3.31
   1  -1  -4  147.94    3.31
   1  -1  -4  147.49    3.14
  -2   0   4  118.43   12.41
   2   0  -4  119.47   12.08
  -3  -1   4  259.58   19.37
   3   1  -4  255.61   18.87
   3   1  -4  247.61   19.70
  -4  -2   4   21.52    1.16
   4   2  -4   21.42    1.16
   4   2  -4   22.17    1.32
  -5  -3   4  336.85   14.07
   5   3  -4  333.52   14.40
  -6  -4   4   43.11    1.49
   6   4  -4   44.05    1.66
   6   4  -4   44.00    1.49
  -7  -5   4  277.81   23.67
   7   5  -4  280.09   24.00
   7   5  -4  275.28   23.01
  -8  -6   4   52.07    6.12
   8   6  -4   54.16    6.12
   8   6  -4   51.43    6.12
  -9  -7   4   70.24    4.30
   9   7  -4   70.19    4.47
 -10  -8   4    0.00    1.16
  10   8  -4    0.15    1.32
 -11  -9   4   28.10    1.99
  11   9  -4   28.60    2.15
 -12 -10   4   17.09    2.32
  12  10  -4   17.49    2.32
 -13 -11   4   23.28    1.82
  13  11  -4   23.08    1.99
 -14 -12   4   21.73    2.81
  14  12  -4   22.37    2.98
 -15 -13   4    0.39    1.82
  15  13  -4    0.04    1.99
 -16 -14   4    0.98    2.15
 -11 -15  -4    1.97    2.48
 -11 -15  -4    1.13    2.32
 -10 -14  -4    0.76    2.15
  -9 -13  -4   22.17    2.65
  -8 -12  -4    9.48    1.99
  -7 -11  -4   86.87    4.63
  -6 -10  -4   47.61    4.30
  -5  -9  -4   21.97    2.15
  -4  -8  -4   47.64    4.30
  -3  -7  -4   31.30    2.65
  -2  -6  -4   29.14    1.32
   1   5   4   46.98    1.82
  -1  -5  -4   46.88    1.32
   0   4   4  468.35   31.45
   0  -4  -4  469.14   31.78
   0  -4  -4  470.58   30.12
   1  -3  -4  177.77    4.97
  -2   2   4   74.26    5.79
   2  -2  -4   75.30    5.96
   2  -2  -4   74.21    5.63
  -3   1   4  256.25   19.86
   3  -1  -4  256.05   19.20
  -4   0   4    7.06    1.66
   4   0  -4    7.06    1.66
   4   0  -4    7.26    1.82
  -5  -1   4  317.76   12.74
   5   1  -4  310.96   12.74
   5   1  -4  317.41   12.41
  -6  -2   4  115.99    3.97
   6   2  -4  115.69    4.14
   6   2  -4  114.10    3.97
  -7  -3   4  165.24   12.74
   7   3  -4  169.22   12.74
  -8  -4   4  210.18   18.54
   8   4  -4  208.79   18.04
   8   4  -4  212.86   18.70
  -9  -5   4  168.77   11.59
   9   5  -4  170.80   11.75
   9   5  -4  179.54   11.59
 -10  -6   4   50.64    4.30
  10   6  -4   48.70    4.30
 -11  -7   4   87.91    4.97
  11   7  -4   88.26    4.97
 -12  -8   4    0.42    1.16
  12   8  -4    0.52    1.32
 -13  -9   4   20.79    1.99
  13   9  -4   20.89    2.15
 -14 -10   4   23.62    2.65
  14  10  -4   22.23    2.65
 -15 -11   4   11.34    1.99
  15  11  -4   11.64    1.99
 -16 -12   4   19.48    2.65
  16  12  -4   19.73    2.81
 -17 -13   4    7.75    2.32
  17  13  -4    8.00    2.32
 -18 -14   4   -0.16    2.15
 -10 -16  -4   -0.48    2.32
  -9 -15  -4    8.41    2.48
  -8 -14  -4    0.94    2.32
  -7 -13  -4   39.62    3.48
  -6 -12  -4   15.06    2.98
  -5 -11  -4    4.83    1.82
  -4 -10  -4   23.30    3.31
  -3  -9  -4    1.23    1.32
  -2  -8  -4   46.94    3.31
  -1  -7  -4   75.16    2.81
   0   6   4    4.43    1.32
   0  -6  -4    4.82    0.66
  -1   5   4   23.04    0.99
   1  -5  -4   23.29    0.99
   1  -5  -4   23.54    0.66
  -2   4   4  335.11   24.50
   2  -4  -4  334.86   24.99
   2  -4  -4  336.85   23.67
  -3   3   4  339.18   23.01
   3  -3  -4  335.11   22.01
   3  -3  -4  333.62   23.34
  -4   2   4   21.82    1.32
   4  -2  -4   21.92    1.32
   4  -2  -4   22.66    1.49
  -5   1   4  315.53   12.91
   5  -1  -4  316.87   12.58
  -6   0   4  190.24    4.97
   6   0  -4  192.72    4.97
   6   0  -4  190.93    4.97
  -7  -1   4  305.81   30.12
   7   1  -4  302.58   30.46
   7   1  -4  312.96   29.30
   8   2  -4   72.49    9.10
   8   2  -4   67.43    8.94
  -9  -3   4   35.19    2.81
   9   3  -4   36.63    2.98
 -10  -4   4   47.29    3.31
  10   4  -4   46.50    3.48
 -11  -5   4  137.26    7.12
  11   5  -4  135.82    6.95
 -12  -6   4  123.45    7.94
  12   6  -4  120.33    7.78
 -13  -7   4   86.54    3.31
  13   7  -4   84.75    3.48
 -14  -8   4    8.99    2.15
  14   8  -4    9.69    2.48
 -15  -9   4    1.86    1.49
  15   9  -4    1.17    1.49
 -16 -10   4    8.03    2.32
  16  10  -4    7.93    2.48
 -17 -11   4   33.66    2.81
  17  11  -4   34.01    2.98
 -18 -12   4    6.63    1.99
  18  12  -4    6.73    1.99
 -19 -13   4    5.94    2.15
  -8 -16  -4   -0.05    2.65
  -7 -15  -4   19.71    2.65
  -6 -14  -4    5.95    2.48
  -5 -13  -4   10.69    2.48
  -4 -12  -4   36.63    3.31
  -3 -11  -4   25.18    1.99
  -2 -10  -4   16.25    1.99
  -1  -9  -4   83.71    3.48
   0   8   4   70.29    2.98
   0  -8  -4   72.28    3.14
  -1   7   4   41.57    1.32
  -2   6   4   31.81    2.81
   2  -6  -4   32.25    2.32
   2  -6  -4   32.15    2.98
  -3   5   4  282.24   22.51
   3  -5  -4  276.53   22.84
   3  -5  -4  280.66   21.52
  -4   4   4   17.34    2.81
   4  -4  -4   17.84    2.98
   4  -4  -4   18.64    2.65
  -5   3   4  338.24   14.90
   5  -3  -4  337.00   15.06
   5  -3  -4  338.59   14.40
  -6   2   4  114.65    4.30
   6  -2  -4  116.63    4.14
  -7   1   4  302.23   28.80
   7  -1  -4  308.49   27.81
   7  -1  -4  291.21   29.13
  -8   0   4   72.98    6.29
   8   0  -4   71.04    6.29
   8   0  -4   68.85    6.12
  -9  -1   4  154.41   12.25
   9   1  -4  162.80   12.25
   9   1  -4  155.31   11.92
  10   2  -4   21.64    1.66
 -11  -3   4   33.10    2.48
  11   3  -4   33.39    2.65
 -12  -4   4   69.39    4.63
  12   4  -4   69.09    4.63
 -13  -5   4   48.49    2.65
  13   5  -4   47.75    2.81
 -14  -6   4  119.06    8.44
  14   6  -4  117.03    8.28
 -15  -7   4    1.78    1.32
  15   7  -4    1.98    1.66
 -16  -8   4   29.67    3.48
  16   8  -4   28.33    3.48
 -17  -9   4   25.87    2.32
  17   9  -4   26.42    2.48
 -18 -10   4    0.67    1.66
  18  10  -4    1.77    1.82
 -19 -11   4    4.82    1.99
  19  11  -4    4.62    1.99
 -20 -12   4    3.35    1.99
  20  12  -4    4.14    1.99
 -21 -13   4    0.40    2.15
  -6 -16  -4    5.50    2.65
  -5 -15  -4    2.08    2.48
  -4 -14  -4    4.35    2.48
  -3 -13  -4    2.02    1.99
  -2 -12  -4   24.98    2.65
  -1 -11  -4    7.61    1.66
   0 -10  -4    3.72    1.66
  -1   9   4   49.39    1.49
   1  -9  -4   48.24    1.32
  -2   8   4   92.51    4.80
   2  -8  -4   92.85    4.14
  -3   7   4  112.95    7.45
   3  -7  -4  112.55    7.45
   3  -7  -4  112.30    6.79
  -4   6   4   22.23    1.82
   4  -6  -4   21.79    1.49
   4  -6  -4   22.58    1.99
  -5   5   4  363.66   20.19
   5  -5  -4  363.56   19.37
   5  -5  -4  357.70   20.36
  -6   4   4   43.96    1.82
   6  -4  -4   44.25    1.99
   6  -4  -4   44.20    1.66
  -7   3   4  169.12   13.24
   7  -3  -4  170.76   12.74
   7  -3  -4  167.43   13.41
  -8   2   4   83.22   12.41
   8  -2  -4   85.16   12.08
  -9   1   4  155.55   11.75
   9  -1  -4  156.45   11.92
   9  -1  -4  154.66   11.59
 -10   0   4   10.02    0.99
  10   0  -4    9.87    1.16
  10   0  -4   10.52    0.83
 -11  -1   4  151.07    7.94
  11   1  -4  141.14    7.78
  11   1  -4  148.19    7.94
 -12  -2   4   69.69    3.64
  12   2  -4   68.25    3.64
 -13  -3   4   58.13    1.66
  13   3  -4   58.03    1.82
 -14  -4   4  101.77    7.61
  14   4  -4  101.67    7.61
 -15  -5   4   22.64    2.81
  15   5  -4   23.13    3.14
 -16  -6   4   40.29    5.46
  16   6  -4   36.81    5.46
 -17  -7   4   32.94    3.48
  17   7  -4   31.21    3.48
 -18  -8   4   17.36    1.82
  18   8  -4   18.00    1.99
 -19  -9   4    6.98    1.66
  19   9  -4    7.83    1.82
 -20 -10   4    0.64    1.82
  20  10  -4    0.44    1.82
 -21 -11   4    1.93    1.99
  21  11  -4    2.12    1.99
 -22 -12   4    3.76    2.32
  -4 -16  -4   12.33    2.98
  -3 -15  -4    0.92    2.15
  -2 -14  -4    5.41    2.32
  -1 -13  -4   11.85    2.15
   0 -12  -4   14.58    2.15
   1 -11  -4    6.47    1.49
  -2  10   4   39.78    3.31
   2 -10  -4   40.13    3.48
  -3   9   4   48.18    4.63
   3  -9  -4   46.98    3.81
  -4   8   4    9.17    1.82
   4  -8  -4    9.86    1.49
   4  -8  -4    7.63    1.49
  -5   7   4  118.47    5.96
   5  -7  -4  118.07    5.46
   5  -7  -4  118.27    6.12
  -6   6   4   59.83    2.48
   6  -6  -4   61.27    2.81
   6  -6  -4   61.62    2.15
  -7   5   4  279.10   24.00
   7  -5  -4  278.01   24.33
   7  -5  -4  277.02   23.01
  -8   4   4  214.05   18.87
   8  -4  -4  211.32   19.03
   8  -4  -4  209.38   18.21
  -9   3   4   36.93    2.81
   9  -3  -4   32.81    2.65
   9  -3  -4   35.09    2.98
 -10   2   4   24.17    2.65
  10  -2  -4   24.72    2.65
 -11   1   4  150.08    9.27
  11  -1  -4  152.27    9.27
  11  -1  -4  155.74    9.10
 -12   0   4   82.02    5.13
  12   0  -4   80.23    4.97
  12   0  -4   80.78    4.97
 -13  -1   4  137.27    6.12
  13   1  -4  135.59    5.96
 -14  -2   4   72.72    5.96
  14   2  -4   69.50    5.96
 -15  -3   4   14.09    3.14
  15   3  -4   14.19    3.31
 -16  -4   4  104.57    8.44
  16   4  -4   98.61    8.28
 -17  -5   4  115.70    6.95
  17   5  -4  115.30    7.12
 -18  -6   4    1.20    1.32
  18   6  -4    1.59    1.49
 -19  -7   4   24.36    1.49
  19   7  -4   25.05    1.66
 -20  -8   4   16.72    1.99
  20   8  -4   16.03    1.99
 -21  -9   4   10.07    1.99
  21   9  -4   10.96    2.15
 -22 -10   4    1.74    2.15
  22  10  -4    0.55    1.99
 -23 -11   4   18.55    2.65
  23  11  -4   18.90    2.65
  -3 -17  -4    2.93    2.65
  -2 -16  -4    6.33    2.48
  -1 -15  -4   10.72    2.32
   0 -14  -4    3.85    2.15
   1 -13  -4    4.56    1.99
   2 -12  -4   18.11    2.48
  -3  11   4   38.50    3.14
   3 -11  -4   38.80    3.31
  -4  10   4   21.81    2.48
   4 -10  -4   21.71    2.48
  -5   9   4   64.43    3.48
   5  -9  -4   64.87    2.98
   5  -9  -4   61.80    3.48
  -6   8   4   16.56    1.66
   6  -8  -4   17.30    1.82
   6  -8  -4   17.50    1.32
  -7   7   4  104.15    9.27
   7  -7  -4  103.01    8.77
   7  -7  -4  101.12    9.43
  -8   6   4   52.72    6.79
   8  -6  -4   54.85    6.95
   8  -6  -4   55.30    6.46
  -9   5   4  177.16   11.59
   9  -5  -4  171.35   11.75
   9  -5  -4  164.74   10.92
 -10   4   4   46.64    3.31
  10  -4  -4   47.29    3.48
  10  -4  -4   45.80    3.14
 -11   3   4   32.95    2.65
  11  -3  -4   31.85    2.48
  11  -3  -4   33.24    2.65
 -12   2   4   69.64    3.81
  12  -2  -4   69.94    3.81
 -13   1   4  134.39    6.29
  13  -1  -4  139.56    6.29
  13  -1  -4  136.63    6.29
 -14   0   4  155.84    9.93
  14   0  -4  155.39    9.93
  14   0  -4  149.78    9.77
 -15  -1   4    1.86    1.16
  15   1  -4    0.27    0.66
 -16  -2   4   29.87    5.46
  16   2  -4   27.73    5.46
 -17  -3   4   93.04    8.28
  17   3  -4   95.47    8.28
 -18  -4   4   20.37    1.82
  18   4  -4   20.42    1.99
 -19  -5   4    5.73    1.32
  19   5  -4    6.08    1.49
 -20  -6   4    3.86    1.49
  20   6  -4    3.86    1.49
 -21  -7   4    3.30    1.82
  21   7  -4    3.25    1.82
 -22  -8   4    8.99    2.32
  22   8  -4    8.85    2.32
 -23  -9   4   45.64    3.31
  23   9  -4   46.18    3.48
 -24 -10   4   -0.37    2.15
  24  10  -4   -0.32    1.99
  -1 -17  -4    1.45    2.65
   0 -16  -4    3.85    2.65
   1 -15  -4    7.06    2.32
   2 -14  -4   17.30    2.48
   3 -13  -4   36.16    3.48
  -4  12   4    1.93    1.66
   4 -12  -4    2.23    1.99
  -5  11   4   39.21    2.98
   5 -11  -4   39.31    3.14
  -6  10   4   21.18    1.82
   6 -10  -4   22.18    1.49
   6 -10  -4   21.48    1.99
   7  -9  -4   18.37    3.48
   7  -9  -4   18.71    2.81
   8  -8  -4   44.74    3.64
   8  -8  -4   44.30    2.98
  -9   7   4   68.35    4.30
   9  -7  -4   68.10    4.47
   9  -7  -4   69.24    3.97
 -10   6   4   49.49    4.47
  10  -6  -4   49.45    4.30
  10  -6  -4   50.04    4.63
 -11   5   4  135.23    6.79
  11  -5  -4  134.93    6.62
  11  -5  -4  134.68    6.95
 -12   4   4   68.74    4.30
  12  -4  -4   66.56    4.47
  12  -4  -4   68.05    4.30
 -13   3   4   57.14    1.82
  13  -3  -4   58.87    1.99
  13  -3  -4   59.97    1.99
 -14   2   4   68.26    5.63
  14  -2  -4   72.13    5.63
  14  -2  -4   68.65    5.63
 -15   1   4    2.26    1.16
  15  -1  -4    1.31    0.99
  15  -1  -4    1.86    1.32
 -16   0   4  144.62   11.59
  16   0  -4  143.23   11.42
 -17  -1   4   64.45    4.80
  17   1  -4   62.66    4.80
 -18  -2   4    2.17    1.32
  18   2  -4    1.22    1.32
 -19  -3   4    9.32    1.32
  19   3  -4    9.87    1.66
 -20  -4   4   12.74    1.49
  20   4  -4   12.54    1.66
 -21  -5   4   20.61    1.99
  21   5  -4   19.72    2.15
 -22  -6   4    5.80    1.99
  22   6  -4    6.89    2.32
 -23  -7   4   40.76    3.81
  23   7  -4   38.03    3.81
 -24  -8   4    1.17    1.99
  24   8  -4    0.42    1.99
 -25  -9   4   26.95    2.65
  25   9  -4   26.20    2.81
 -26 -10   4    2.63    2.48
  26  10  -4    1.44    2.32
   1 -17  -4    1.76    2.65
   2 -16  -4    5.19    2.65
   3 -15  -4    9.06    2.48
   4 -14  -4    7.11    2.32
  -5  13   4   50.04    3.64
   5 -13  -4   51.78    3.97
  -6  12   4    1.67    1.66
   6 -12  -4    1.92    1.82
  -7  11   4   32.85    3.81
   7 -11  -4   33.55    4.14
  -8  10   4   16.47    2.65
   8 -10  -4   16.81    2.15
   8 -10  -4   15.92    2.81
  -9   9   4    7.68    1.49
   9  -9  -4    7.24    1.66
   9  -9  -4    8.08    1.32
 -10   8   4    0.10    0.33
  10  -8  -4   -0.24    0.99
  10  -8  -4    0.05    1.49
  11  -7  -4   86.57    5.30
  11  -7  -4   88.11    4.80
  12  -6  -4  121.02    8.28
  12  -6  -4  123.26    7.78
 -13   5   4   46.46    2.65
  13  -5  -4   48.39    2.65
  13  -5  -4   47.70    2.98
 -14   4   4  102.27    7.78
  14  -4  -4  101.97    7.61
  14  -4  -4  102.32    7.94
 -15   3   4   13.40    2.98
  15  -3  -4   14.44    3.14
  15  -3  -4   12.65    3.14
 -16   2   4   25.99    5.30
  16  -2  -4   28.82    5.30
  16  -2  -4   29.67    5.30
  17  -1  -4   51.54    1.99
 -18   0   4   22.46    1.82
  18   0  -4   19.78    1.49
 -19  -1   4   29.83    1.32
  19   1  -4   30.33    1.49
 -20  -2   4    6.34    1.32
  20   2  -4    6.69    1.49
 -21  -3   4   45.27    3.14
  21   3  -4   46.46    3.31
 -22  -4   4    9.22    2.15
  22   4  -4    9.61    2.48
 -23  -5   4   82.64    5.30
  23   5  -4   81.35    5.30
 -24  -6   4    0.28    1.82
  24   6  -4   -0.47    1.82
 -25  -7   4   21.33    2.98
  25   7  -4   22.08    3.31
 -26  -8   4    6.82    2.32
  26   8  -4    7.11    2.32
 -27  -9   4    0.11    1.99
  27   9  -4   -0.04    2.32
   3 -17  -4    2.69    2.65
   4 -16  -4    0.86    2.65
   5 -15  -4    7.85    2.48
  -6  14   4    3.43    1.99
   6 -14  -4    3.77    2.15
  -7  13   4   17.59    3.14
   7 -13  -4   18.09    3.48
  -8  12   4   27.95    2.98
   8 -12  -4   27.46    3.14
  -9  11   4   32.43    2.32
   9 -11  -4   33.12    1.99
   9 -11  -4   31.93    2.48
 -10  10   4    6.42    1.99
  10 -10  -4    5.83    1.49
  10 -10  -4    5.93    1.99
 -11   9   4   28.15    2.15
  11  -9  -4   28.25    2.48
  11  -9  -4   28.99    1.99
 -12   8   4    0.22    1.32
  12  -8  -4    0.17    1.66
  12  -8  -4    0.32    1.16
  13  -7  -4   86.19    3.97
  13  -7  -4   86.19    3.48
  14  -6  -4  119.16    8.44
  14  -6  -4  118.47    8.94
  15  -5  -4   22.09    2.98
  15  -5  -4   23.18    3.31
  16  -4  -4  104.02    8.94
  16  -4  -4  106.16    9.43
 -17   3   4   93.88    8.28
  17  -3  -4   92.15    8.11
  17  -3  -4   95.32    8.44
 -18   2   4    1.37    1.16
  18  -2  -4    1.47    1.16
  18  -2  -4    1.62    1.32
 -19   1   4   30.52    1.32
  19  -1  -4   30.38    1.49
 -20   0   4   26.43    2.15
  20   0  -4   28.02    2.48
 -21  -1   4   14.02    1.49
  21   1  -4   14.27    1.66
 -22  -2   4    4.42    1.66
  22   2  -4    6.36    2.15
 -23  -3   4  126.39    8.61
  23   3  -4  124.45    8.61
 -24  -4   4    1.91    1.66
  24   4  -4    1.66    1.99
 -25  -5   4   53.12    3.64
  25   5  -4   50.68    3.81
 -26  -6   4    3.67    2.32
  26   6  -4    1.59    2.15
 -27  -7   4    0.78    2.32
  27   7  -4    0.98    2.32
 -28  -8   4    0.37    2.48
  28   8  -4    0.57    2.48
   5 -17  -4    6.29    2.81
   6 -16  -4    1.73    2.65
  -7  15   4    1.58    2.15
   7 -15  -4    1.48    2.48
  -8  14   4    7.03    2.32
   8 -14  -4    7.83    2.65
  -9  13   4   12.11    2.48
   9 -13  -4   11.97    2.81
 -10  12   4    8.71    2.15
  10 -12  -4    8.91    2.48
  10 -12  -4    9.41    1.82
 -11  11   4   40.35    2.65
  11 -11  -4   40.90    2.98
  11 -11  -4   40.30    2.32
 -12  10   4   16.74    2.48
  12 -10  -4   17.34    2.15
  12 -10  -4   16.64    2.65
 -13   9   4   20.15    2.15
  13  -9  -4   20.74    1.99
  13  -9  -4   19.90    2.32
 -14   8   4    9.34    2.32
  14  -8  -4    9.14    2.15
  14  -8  -4    8.84    2.65
 -15   7   4    1.53    1.66
  15  -7  -4    1.68    1.49
  15  -7  -4    1.58    1.82
 -16   6   4   36.86    5.46
  16  -6  -4   38.40    5.46
  16  -6  -4   40.68    5.79
 -17   5   4  114.06    6.95
  17  -5  -4  114.76    7.12
  17  -5  -4  115.80    6.95
 -18   4   4   20.22    1.66
  18  -4  -4   20.22    1.99
  18  -4  -4   20.07    1.99
 -19   3   4    9.67    1.32
  19  -3  -4    9.37    1.49
  19  -3  -4    9.27    1.49
 -20   2   4    6.39    1.16
  20  -2  -4    6.49    1.32
 -21   1   4   14.46    1.49
  21  -1  -4   14.37    1.66
 -22   0   4   47.31    4.97
  22   0  -4   48.40    5.13
 -23  -1   4   97.77    6.46
  23   1  -4   95.88    6.62
 -24  -2   4    1.92    1.66
  24   2  -4    1.37    1.82
 -25  -3   4   46.75    4.97
  25   3  -4   47.54    5.13
 -26  -4   4   17.48    2.98
  26   4  -4   17.78    3.31
 -27  -5   4    0.23    1.99
  27   5  -4   -0.07    2.15
 -28  -6   4    1.53    2.32
  28   6  -4    1.68    2.48
   7 -17  -4    2.13    2.81
  -8  16   4    2.64    2.32
   8 -16  -4    2.94    2.65
  -9  15   4    0.51    2.15
   9 -15  -4    0.66    2.48
 -10  14   4    0.76    2.15
  10 -14  -4    1.36    2.48
 -11  13   4   23.36    2.65
  11 -13  -4   24.50    2.98
 -12  12   4   16.44    2.81
  12 -12  -4   15.65    2.81
  12 -12  -4   16.24    2.15
 -13  11   4   22.58    1.99
  13 -11  -4   22.68    1.82
  13 -11  -4   23.97    2.48
 -14  10   4   22.73    2.81
  14 -10  -4   23.37    3.31
  14 -10  -4   22.43    2.48
 -15   9   4    1.42    1.49
  15  -9  -4    1.37    1.99
  15  -9  -4    1.42    1.49
 -16   8   4   27.09    3.48
  16  -8  -4   28.08    3.31
  16  -8  -4   29.37    3.81
 -17   7   4   31.60    3.48
  17  -7  -4   31.21    3.31
  17  -7  -4   30.86    3.64
 -18   6   4    1.59    1.32
  18  -6  -4    1.34    1.82
  18  -6  -4    1.24    1.49
 -19   5   4    6.03    1.32
  19  -5  -4    5.83    1.49
  19  -5  -4    5.43    1.49
 -20   4   4   12.35    1.32
  20  -4  -4   12.30    1.49
  20  -4  -4   12.99    1.66
 -21   3   4   44.97    2.98
  21  -3  -4   44.53    2.98
 -22   2   4    5.02    1.66
  22  -2  -4    5.26    1.99
 -23   1   4   97.27    6.79
  23  -1  -4   99.36    6.79
 -24   0   4    8.22    1.82
  24   0  -4    7.87    2.15
 -25  -1   4   59.10    4.97
  25   1  -4   59.60    5.13
 -26  -2   4   11.16    2.48
  26   2  -4   12.60    2.98
 -27  -3   4    2.55    1.82
  27   3  -4    2.21    2.15
 -28  -4   4    2.12    2.32
  28   4  -4    2.22    2.48
 -29  -5   4    0.24    2.15
  29   5  -4    0.98    2.48
  -9  17   4    2.55    2.48
 -10  16   4    0.66    2.32
  10 -16  -4    0.62    2.65
 -11  15   4    2.17    2.32
  11 -15  -4    2.62    2.48
 -12  14   4    1.37    2.32
  12 -14  -4    1.62    2.48
 -13  13   4   11.82    2.32
  13 -13  -4   12.21    2.48
 -14  12   4   22.42    3.31
  14 -12  -4   22.77    2.81
  14 -12  -4   20.53    3.31
 -15  11   4   11.59    2.15
  15 -11  -4   11.89    2.65
  15 -11  -4   11.24    1.82
 -16  10   4    7.33    2.48
  16 -10  -4    9.17    2.98
  16 -10  -4    7.98    2.32
 -17   9   4   26.22    2.65
  17  -9  -4   26.02    2.48
  17  -9  -4   27.11    3.14
 -18   8   4   18.10    2.15
  18  -8  -4   17.31    2.15
  18  -8  -4   17.41    1.82
 -19   7   4   24.31    1.49
  19  -7  -4   24.11    1.49
  19  -7  -4   24.11    1.82
 -20   6   4    3.91    1.32
  20  -6  -4    3.91    1.49
  20  -6  -4    4.60    1.82
 -21   5   4   19.27    1.82
  21  -5  -4   20.41    2.15
  21  -5  -4   20.31    2.15
 -22   4   4    8.03    1.99
  22  -4  -4    9.61    2.32
 -23   3   4  123.46    8.44
  23  -3  -4  126.54    8.44
 -24   2   4    2.22    1.66
  24  -2  -4    2.42    1.82
 -25   1   4   58.06    4.80
  25  -1  -4   59.35    4.97
 -26   0   4    1.82    1.82
  26   0  -4    2.22    2.32
 -27  -1   4   -0.46    1.66
  27   1  -4   -0.06    2.15
 -28  -2   4    1.82    2.15
  28   2  -4    2.17    2.48
 -29  -3   4    0.65    1.99
  29   3  -4    1.70    2.32
 -30  -4   4    5.52    2.48
  30   4  -4    4.23    2.48
 -12  16   4    0.93    2.32
  12 -16  -4    1.22    2.65
 -13  15   4    2.32    2.15
  13 -15  -4    2.32    2.48
 -14  14   4    2.96    2.32
  14 -14  -4    3.46    2.81
 -15  13   4    1.18    2.32
  15 -13  -4    0.78    1.82
  15 -13  -4   -0.46    2.48
 -16  12   4   19.13    2.81
  16 -12  -4   18.63    2.48
  16 -12  -4   18.83    3.14
 -17  11   4   33.11    3.14
  17 -11  -4   33.76    3.48
  17 -11  -4   32.12    2.65
 -18  10   4    1.47    1.82
  18 -10  -4    1.22    1.82
  18 -10  -4    0.92    2.15
 -19   9   4    7.48    1.82
  19  -9  -4    7.43    2.15
  19  -9  -4    7.43    1.66
 -20   8   4   16.23    1.99
  20  -8  -4   16.92    2.32
  20  -8  -4   16.03    1.82
 -21   7   4    2.75    1.66
  21  -7  -4    2.65    1.82
  21  -7  -4    2.00    1.82
 -22   6   4    4.91    1.82
  22  -6  -4    6.74    2.15
  22  -6  -4    6.59    2.32
 -23   5   4   80.46    4.97
  23  -5  -4   80.80    4.97
 -24   4   4    1.51    1.66
  24  -4  -4    2.21    1.82
 -25   3   4   43.82    4.30
  25  -3  -4   45.26    4.30
 -26   2   4   12.06    2.65
  26  -2  -4   12.06    2.81
 -27   1   4    0.08    1.82
  27  -1  -4    0.03    1.99
 -28   0   4    0.10    1.82
  28   0  -4   -0.50    2.15
 -29  -1   4   -0.12    1.99
  29   1  -4    0.22    2.32
 -30  -2   4    6.33    2.32
  30   2  -4    6.23    2.65
 -15  15   4    3.73    2.32
  15 -15  -4    3.78    2.65
 -16  14   4    1.48    2.48
  16 -14  -4    0.34    2.81
 -17  13   4    7.85    2.65
  17 -13  -4    7.35    2.15
  17 -13  -4    7.40    2.98
 -18  12   4    6.93    2.15
  18 -12  -4    6.88    1.99
  18 -12  -4    6.88    2.65
 -19  11   4    5.07    2.15
  19 -11  -4    3.68    2.32
  19 -11  -4    4.52    1.82
 -20  10   4    0.59    1.82
  20 -10  -4    0.44    1.82
  20 -10  -4    2.43    2.48
 -21   9   4    9.97    2.15
  21  -9  -4   11.46    2.15
  21  -9  -4   11.46    2.48
 -22   8   4    8.15    2.32
  22  -8  -4    9.64    2.65
  22  -8  -4    8.65    2.15
 -23   7   4   39.02    3.97
  23  -7  -4   40.81    4.30
  23  -7  -4   40.66    3.97
 -24   6   4   -0.42    1.66
  24  -6  -4   -0.37    1.82
 -25   5   4   51.68    3.64
  25  -5  -4   51.82    3.64
 -26   4   4   14.75    2.48
  26  -4  -4   15.05    2.48
 -27   3   4    2.11    1.66
  27  -3  -4    2.26    1.82
 -28   2   4    1.92    2.15
  28  -2  -4    2.32    2.48
 -29   1   4   -0.02    1.82
  29  -1  -4    1.07    2.32
 -30   0   4    9.91    2.32
  30   0  -4    8.62    2.65
 -31  -1   4   10.80    2.65
  31   1  -4   12.44    3.14
 -17  15   4   11.00    2.65
 -18  14   4    1.08    2.48
  18 -14  -4    0.33    1.99
  18 -14  -4   -0.16    2.65
 -19  13   4    6.94    2.32
  19 -13  -4    6.19    1.99
  19 -13  -4    5.94    2.65
 -20  12   4    4.29    2.15
  20 -12  -4    3.94    1.99
  20 -12  -4    3.75    2.65
 -21  11   4    2.02    2.15
  21 -11  -4    2.42    1.99
  21 -11  -4    2.77    2.65
 -22  10   4    0.55    2.15
  22 -10  -4    1.44    2.65
  22 -10  -4    1.99    2.15
 -23   9   4   43.95    3.31
  23  -9  -4   46.04    3.31
  23  -9  -4   46.58    3.81
 -24   8   4    0.02    1.82
  24  -8  -4    0.37    1.99
 -25   7   4   19.39    2.65
  25  -7  -4   20.24    2.81
 -26   6   4    1.88    1.99
  26  -6  -4    2.23    2.15
 -27   5   4    0.68    1.99
  27  -5  -4   -0.22    1.99
 -28   4   4    1.33    1.99
  28  -4  -4    1.63    2.15
 -29   3   4    1.40    1.99
  29  -3  -4    1.84    2.32
 -30   2   4    5.74    2.15
  30  -2  -4    6.19    2.65
 -31   1   4   10.25    2.48
  31  -1  -4   11.49    3.14
 -21  13   4    0.55    2.32
  21 -13  -4    0.55    2.15
  21 -13  -4    0.25    2.81
 -22  12   4    4.16    2.48
  22 -12  -4    4.31    2.98
  22 -12  -4    3.21    2.15
 -23  11   4   19.29    2.81
  23 -11  -4   19.34    3.14
  23 -11  -4   19.00    2.65
 -24  10   4    0.17    2.15
  24 -10  -4    0.32    1.99
  24 -10  -4    0.32    2.48
 -25   9   4   25.85    2.81
  25  -9  -4   27.74    2.81
 -26   8   4    5.67    2.15
  26  -8  -4    6.32    2.15
 -27   7   4    0.34    1.99
  27  -7  -4    0.14    1.99
 -28   6   4   -0.26    2.15
  28  -6  -4   -0.01    2.15
 -29   5   4    0.93    2.15
  29  -5  -4    0.29    1.99
 -30   4   4    5.47    2.32
  30  -4  -4    5.22    2.48
 -31   3   4    6.09    2.48
 -25  11   4   13.10    2.48
 -26  10   4    1.59    2.32
  26 -10  -4    1.93    2.32
 -27   9   4   -0.48    2.15
  27  -9  -4    0.06    2.15
 -28   8   4   -0.13    2.15
  28  -8  -4   -0.13    2.15
 -29   7   4    0.46    2.15
  25  -5   5   11.63    2.48
 -25   5  -5   11.48    2.65
  24  -6   5    3.45    2.48
 -24   6  -5    2.11    2.48
  23  -7   5    1.79    2.32
 -23   7  -5    1.34    2.48
  22  -8   5    2.66    2.65
 -22   8  -5    1.97    2.81
  21  -9   5    0.22    2.32
 -21   9  -5   -0.68    2.32
  20 -10   5    7.76    2.65
 -20  10  -5    8.11    2.81
  19 -11   5    1.24    2.32
 -19  11  -5    2.29    2.48
  26  -2   5   -0.03    2.15
 -26   2  -5    1.16    2.48
  25  -3   5    1.64    2.15
 -25   3  -5    1.69    2.32
  24  -4   5    5.19    2.15
 -24   4  -5    5.29    2.32
  23  -5   5   13.70    2.48
 -23   5  -5   13.50    2.65
  22  -6   5    1.33    2.32
 -22   6  -5    1.53    2.48
  21  -7   5    0.12    2.15
 -21   7  -5    1.31    2.32
  20  -8   5   22.88    3.14
 -20   8  -5   23.57    3.31
  19  -9   5    3.40    2.32
 -19   9  -5    2.80    2.32
  18 -10   5   10.56    2.81
 -18  10  -5    9.92    2.81
  17 -11   5    2.05    2.48
 -17  11  -5    1.50    2.32
  16 -12   5    5.50    2.65
 -16  12  -5    6.00    2.65
  15 -13   5    1.26    2.65
 -15  13  -5    0.07    2.48
 -26   0  -5    1.32    2.32
 -25   1  -5    9.62    2.48
  24  -2   5    3.27    1.99
 -24   2  -5    3.97    2.32
  23  -3   5    1.99    2.15
 -23   3  -5    1.34    2.32
  22  -4   5    2.63    2.32
 -22   4  -5    4.02    2.65
  21  -5   5    9.08    2.32
 -21   5  -5    8.98    2.32
  20  -6   5   20.35    3.14
 -20   6  -5   22.78    3.64
  19  -7   5    2.36    2.32
 -19   7  -5    1.32    2.15
  18  -8   5   32.86    3.14
 -18   8  -5   31.87    3.14
  17  -9   5    0.84    2.32
 -17   9  -5    0.69    2.15
  16 -10   5    4.12    2.48
 -16  10  -5    3.68    2.32
  15 -11   5    1.24    2.32
 -15  11  -5    0.64    2.15
  14 -12   5    0.67    2.48
 -14  12  -5   -0.07    2.32
  13 -13   5   15.86    2.98
 -13  13  -5   15.02    2.81
  12 -14   5    9.99    2.65
 -12  14  -5   10.84    2.65
 -25  -1  -5    9.91    2.32
 -24   0  -5    2.43    2.15
  23  -1   5    9.64    2.15
 -23   1  -5   10.09    2.48
  22  -2   5    2.16    2.15
 -22   2  -5    1.72    2.32
  21  -3   5    0.93    1.99
 -21   3  -5    0.34    1.99
  20  -4   5   45.39    4.14
 -20   4  -5   45.69    4.30
  19  -5   5   20.40    1.99
 -19   5  -5   20.75    2.32
  18  -6   5   24.01    3.31
 -18   6  -5   24.21    3.31
  17  -7   5    0.60    2.15
 -17   7  -5   -0.15    1.99
  16  -8   5   13.05    2.32
 -16   8  -5   13.35    2.32
  15  -9   5    2.78    2.48
 -15   9  -5    2.88    2.32
  14 -10   5    0.72    2.32
 -14  10  -5    1.02    2.15
  13 -11   5    7.64    2.65
 -13  11  -5    7.59    2.48
  12 -12   5   12.77    2.65
 -12  12  -5   12.97    2.65
  11 -13   5    7.42    2.48
 -11  13  -5    8.66    2.48
  10 -14   5    1.78    2.48
 -10  14  -5    1.63    2.48
   9 -15   5    0.83    2.48
  -9  15  -5    1.92    2.48
 -24  -2  -5    3.62    1.99
 -23  -1  -5   10.34    2.32
 -22   0  -5   12.00    3.14
  21  -1   5    4.03    1.82
 -21   1  -5    4.53    1.99
  20  -2   5   17.94    3.31
 -20   2  -5   18.04    3.31
  19  -3   5    5.05    1.82
 -19   3  -5    5.34    1.82
  18  -4   5   69.13    4.47
 -18   4  -5   71.36    4.80
  17  -5   5    9.64    1.82
 -17   5  -5    8.65    1.82
  16  -6   5   10.05    2.48
 -16   6  -5    8.90    2.32
  15  -7   5    4.16    2.48
 -15   7  -5    2.57    2.15
  14  -8   5    0.04    1.99
 -14   8  -5   -0.16    1.66
  13  -9   5   42.60    4.14
 -13   9  -5   43.79    3.97
  12 -10   5   39.74    2.98
 -12  10  -5   40.19    2.81
  11 -11   5    0.84    2.15
 -11  11  -5    0.94    1.99
  10 -12   5    4.26    2.32
 -10  12  -5    3.81    2.15
   9 -13   5    8.75    2.81
  -9  13  -5    8.70    2.48
   8 -14   5    8.23    2.65
  -8  14  -5    9.33    2.48
   7 -15   5    1.39    2.48
  -7  15  -5    1.04    2.32
   6 -16   5    0.21    2.48
 -23  -3  -5    2.09    2.15
 -22  -2  -5    2.36    2.15
 -21  -1  -5    5.52    1.99
  20   0   5   74.47    5.30
 -20   0  -5   73.33    5.46
  19  -1   5   11.52    1.82
 -19   1  -5   11.57    1.82
  18  -2   5   28.18    3.81
 -18   2  -5   26.34    3.64
  17  -3   5    0.22    1.66
 -17   3  -5   -0.27    1.49
  16  -4   5   52.77    4.47
 -16   4  -5   52.42    4.47
  15  -5   5    4.42    1.99
 -15   5  -5    3.87    1.82
  14  -6   5    1.99    1.99
 -14   6  -5    0.60    1.66
  13  -7   5   49.26    3.64
 -13   7  -5   48.87    3.48
  12  -8   5   15.59    2.48
 -12   8  -5   15.34    2.15
  11  -9   5   19.27    2.65
 -11   9  -5   19.87    2.48
  10 -10   5   11.84    2.15
 -10  10  -5   10.90    1.82
   9 -11   5    8.74    2.65
  -9  11  -5    9.14    2.65
   8 -12   5    6.23    2.48
  -8  12  -5    7.47    2.48
   7 -13   5    6.42    2.48
  -7  13  -5    7.37    2.48
   6 -14   5    5.93    2.32
  -6  14  -5    6.98    2.48
   5 -15   5   -0.51    2.15
  -5  15  -5   -0.26    2.32
   4 -16   5    1.29    2.15
 -24  -6  -5    2.41    1.99
 -23  -5  -5   13.35    2.15
 -22  -4  -5    2.83    1.99
 -22  -4  -5    3.22    2.15
 -21  -3  -5    1.08    1.66
 -21  -3  -5    0.88    1.82
 -20  -2  -5   19.18    3.31
 -19  -1  -5   12.07    1.82
  18   0   5   80.84    5.30
 -18   0  -5   79.84    5.46
  17  -1   5    1.79    1.66
 -17   1  -5    1.94    1.66
  16  -2   5   17.16    2.48
 -16   2  -5   18.10    2.48
  15  -3   5   13.21    2.81
 -15   3  -5   13.41    2.65
  14  -4   5   21.74    2.65
 -14   4  -5   20.45    2.48
  13  -5   5   26.76    3.48
 -13   5  -5   26.51    3.48
  12  -6   5   83.71    3.81
 -12   6  -5   84.75    3.81
  11  -7   5   10.67    2.15
 -11   7  -5   11.02    1.82
  10  -8   5    1.37    1.99
 -10   8  -5    2.71    1.99
   9  -9   5   19.12    2.81
  -9   9  -5   18.42    2.81
   8 -10   5   17.11    3.14
  -8  10  -5   15.57    2.98
   7 -11   5   12.04    2.32
  -7  11  -5   13.67    2.48
   6 -12   5   11.84    2.65
  -6  12  -5   12.44    2.48
   5 -13   5    4.60    2.32
  -5  13  -5    5.05    2.32
   4 -14   5   -0.33    2.15
  -4  14  -5    0.56    2.15
   3 -15   5    3.61    2.15
   2 -16   5    0.87    2.32
 -23  -7  -5    2.54    2.15
 -22  -6  -5    1.33    1.99
 -22  -6  -5    1.88    2.15
 -21  -5  -5    8.63    1.82
 -21  -5  -5    9.48    2.15
 -20  -4  -5   45.54    3.81
 -20  -4  -5   46.08    3.97
 -19  -3  -5    5.69    1.49
 -19  -3  -5    6.34    1.82
 -18  -2  -5   27.98    3.48
 -18  -2  -5   25.60    3.31
  17   1   5    1.69    1.49
 -17  -1  -5    1.84    1.16
 -17  -1  -5    2.34    1.49
  16   0   5   33.14    3.14
 -16   0  -5   32.69    3.14
  15  -1   5    3.77    1.99
 -15   1  -5    4.22    2.15
  14  -2   5    2.27    1.82
 -14   2  -5    1.92    1.66
  13  -3   5  149.96    7.45
 -13   3  -5  148.27    7.45
  12  -4   5  112.99    5.13
 -12   4  -5  111.36    5.13
  11  -5   5    5.41    2.15
 -11   5  -5    5.51    1.99
  10  -6   5   27.62    1.66
 -10   6  -5   27.07    1.32
   9  -7   5   24.70    3.31
  -9   7  -5   27.33    3.48
   8  -8   5   51.95    4.97
  -8   8  -5   55.67    5.30
   7  -9   5    5.63    1.99
  -7   9  -5    6.52    1.99
   6 -10   5   15.35    2.81
  -6  10  -5   15.20    2.81
   5 -11   5    3.89    1.99
  -5  11  -5    4.39    1.99
  -4  12  -5    2.74    2.15
  -3  13  -5   18.08    2.32
  -2  14  -5    2.43    2.32
   0 -16   5   22.11    2.48
 -22  -8  -5    1.82    2.32
 -21  -7  -5    1.26    1.82
 -21  -7  -5    1.51    1.99
 -20  -6  -5   20.50    2.65
 -20  -6  -5   19.70    2.65
 -19  -5  -5   21.69    1.99
 -19  -5  -5   21.59    1.82
 -18  -4  -5   73.64    4.80
 -18  -4  -5   71.36    4.80
 -17  -3  -5    0.12    1.49
 -17  -3  -5    0.17    1.16
 -16  -2  -5   18.40    2.48
 -16  -2  -5   17.75    1.99
  15   1   5    4.41    1.99
 -15  -1  -5    3.87    1.99
 -15  -1  -5    3.92    1.66
  14   0   5    3.83    1.32
 -14   0  -5    3.73    0.83
 -14   0  -5    3.68    1.32
  13  -1   5   57.80    3.97
 -13   1  -5   57.75    3.97
  12  -2   5   89.62    3.31
 -12   2  -5   89.77    3.31
  11  -3   5   76.34    4.97
 -11   3  -5   76.29    4.97
  10  -4   5   29.30    1.32
 -10   4  -5   29.55    0.33
   9  -5   5   32.74    4.14
  -9   5  -5   27.38    3.81
   8  -6   5   32.67    4.14
  -8   6  -5   32.77    3.97
   7  -7   5   24.89    2.65
  -6   8  -5   44.19    3.81
  -5   9  -5    0.47    1.49
  -5   9  -5    1.16    1.66
  -4  10  -5    0.31    1.66
  -4  10  -5    0.16    1.66
  -3  11  -5   13.20    1.99
  -3  11  -5   14.05    1.99
  -2  12  -5   37.36    3.81
  -2  12  -5   38.50    3.81
  -1  13  -5    0.43    2.15
  -1  13  -5    1.37    1.99
   0  14  -5   43.20    2.98
   1  15  -5    1.70    2.48
   2  16  -5    1.77    2.65
 -21  -9  -5   -0.58    1.99
 -20  -8  -5   24.81    2.81
 -20  -8  -5   22.08    2.65
 -19  -7  -5    2.91    1.99
 -19  -7  -5    2.41    1.82
 -18  -6  -5   25.36    2.98
 -18  -6  -5   23.62    2.81
 -17  -5  -5    8.94    1.49
 -17  -5  -5    9.79    1.66
 -16  -4  -5   54.21    4.47
 -16  -4  -5   53.81    4.47
 -15  -3  -5   12.72    2.32
 -15  -3  -5   13.81    2.48
  14   2   5    1.77    1.49
 -14  -2  -5    1.92    1.32
 -14  -2  -5    2.37    1.66
  13   1   5   58.45    3.81
 -13  -1  -5   58.65    4.14
 -13  -1  -5   57.46    3.81
  12   0   5   89.80    3.31
 -12   0  -5   89.10    3.48
 -12   0  -5   89.15    3.14
  11  -1   5    4.60    1.66
 -11   1  -5    3.96    1.49
  10  -2   5    5.86    1.66
 -10   2  -5    4.87    0.99
  -7   5  -5   44.97    4.97
  -6   6  -5   51.38    5.13
  -6   6  -5   49.14    5.13
  -5   7  -5    6.68    1.32
  -5   7  -5    7.63    1.32
  -4   8  -5    1.13    1.16
  -4   8  -5    1.03    1.49
  -3   9  -5   30.54    2.15
  -3   9  -5   30.69    2.32
  -2  10  -5    1.83    1.66
  -2  10  -5    1.48    1.66
  -1  11  -5    1.42    1.82
  -1  11  -5    2.31    1.82
   0  12  -5  190.66    8.11
   0  12  -5  189.27    8.28
   1  13  -5    1.23    2.15
   1  13  -5    1.68    2.15
   2  14  -5    1.21    2.15
   3  15  -5    2.44    2.48
   4  16  -5   -0.35    2.32
 -20 -10  -5    7.76    2.32
 -19  -9  -5    3.00    1.99
 -19  -9  -5    2.36    1.99
 -18  -8  -5   33.21    2.98
 -18  -8  -5   34.50    2.98
 -17  -7  -5   -0.20    1.66
 -17  -7  -5    0.05    1.66
 -16  -6  -5   10.10    1.99
 -16  -6  -5    9.15    1.99
 -15  -5  -5    3.62    1.49
 -15  -5  -5    3.27    1.49
 -14  -4  -5   20.70    2.32
 -14  -4  -5   23.43    2.65
 -13  -3  -5  148.97    7.45
 -13  -3  -5  151.30    7.61
  12   2   5   88.72    3.14
 -12  -2  -5   89.97    3.14
 -12  -2  -5   89.82    3.31
  11   1   5    4.45    1.49
 -11  -1  -5    4.50    1.32
 -11  -1  -5    4.26    1.49
  10   0   5   37.09    0.99
 -10   0  -5   37.49    0.99
 -10   0  -5   37.24    0.33
   9  -1   5   23.57    4.14
  -9   1  -5   22.53    3.81
   8  -2   5  200.40   15.56
  -8   2  -5  199.41   15.56
  -7   3  -5  137.89   12.74
  -6   4  -5   79.83    6.46
  -6   4  -5   79.88    6.29
  -5   5  -5   21.94    1.49
  -5   5  -5   22.54    1.66
  -4   6  -5   14.30    1.66
  -4   6  -5   14.40    1.66
  -3   7  -5   47.54    2.15
  -2   8  -5   31.81    2.48
  -1   9  -5    4.26    1.49
  -1   9  -5    5.00    1.66
   0  10  -5   86.65    4.14
   0  10  -5   85.90    4.14
   1  11  -5   21.40    2.81
   1  11  -5   21.95    2.65
   2  12  -5   34.87    2.32
   2  12  -5   35.17    2.65
   3  13  -5    1.05    2.32
   4  14  -5    0.97    2.15
   5  15  -5    5.12    2.65
   6  16  -5   -0.15    2.48
 -19 -11  -5    2.09    2.15
 -18 -10  -5   10.02    2.32
 -18 -10  -5    9.87    2.32
 -17  -9  -5   -0.01    1.82
 -17  -9  -5    0.94    1.82
 -16  -8  -5   13.55    2.15
 -16  -8  -5   14.24    2.15
 -15  -7  -5    3.22    1.82
 -15  -7  -5    2.92    1.99
 -14  -6  -5    1.94    1.66
 -14  -6  -5    1.55    1.66
 -13  -5  -5   26.36    3.14
 -13  -5  -5   26.21    2.98
 -12  -4  -5  113.19    5.13
 -12  -4  -5  112.45    5.13
  11   3   5   74.75    4.30
 -11  -3  -5   76.84    4.63
 -11  -3  -5   76.84    4.80
  10   2   5    6.71    1.49
 -10  -2  -5    6.71    1.49
 -10  -2  -5    7.70    1.66
   9   1   5   24.66    4.14
  -9  -1  -5   23.57    4.14
  -9  -1  -5   23.02    4.30
   8   0   5   33.26    4.80
  -8   0  -5   30.98    4.97
  -8   0  -5   30.73    4.63
   7  -1   5   24.25    3.31
  -7   1  -5   24.54    2.81
  -6   2  -5  178.60   13.24
  -6   2  -5  176.71   12.74
  -5   3  -5   70.12    2.81
  -5   3  -5   69.77    2.81
  -4   4  -5    3.00    1.32
  -4   4  -5    2.75    1.49
  -3   5  -5   67.95    2.81
  -3   5  -5   67.75    2.81
  -2   6  -5   30.86    3.31
  -2   6  -5   26.94    3.14
  -1   7  -5    3.61    1.49
   0   8  -5  441.07   20.69
   0   8  -5  425.63   19.86
   1   9  -5    1.95    1.66
   1   9  -5    1.05    1.49
   2  10  -5    3.07    1.82
   2  10  -5    3.42    1.49
   3  11  -5    3.86    2.32
   3  11  -5    3.91    1.99
   4  12  -5    5.07    2.32
   4  12  -5    4.87    2.15
   5  13  -5   16.97    2.81
   6  14  -5    2.02    2.32
   7  15  -5   14.34    2.81
   8  16  -5    0.25    2.32
 -18 -12  -5   16.30    2.48
 -17 -11  -5    1.65    2.15
 -17 -11  -5    1.40    1.99
 -16 -10  -5    4.82    1.99
 -16 -10  -5    4.47    2.15
 -15  -9  -5    2.73    2.15
 -15  -9  -5    2.68    1.99
 -14  -8  -5    1.18    1.66
 -14  -8  -5    0.19    1.66
 -13  -7  -5   48.62    2.98
 -13  -7  -5   48.37    3.14
 -12  -6  -5   85.15    3.48
 -12  -6  -5   83.71    3.81
 -11  -5  -5    5.41    1.82
 -11  -5  -5    5.71    1.99
 -10  -4  -5   29.55    1.16
 -10  -4  -5   29.06    0.99
  -9  -3  -5  139.20   12.91
  -9  -3  -5  138.66   13.08
  -8  -2  -5  206.95   17.88
  -8  -2  -5  209.04   17.55
   7   1   5   25.74    3.48
  -7  -1  -5   26.78    3.64
  -5   1  -5    7.34    0.50
  -5   1  -5    7.14    0.99
  -5   1  -5    6.99    0.99
  -4   2  -5   29.30    1.82
  -4   2  -5   28.65    1.82
  -3   3  -5  273.93   11.09
  -3   3  -5  275.62   10.76
  -2   4  -5   99.65    9.93
  -2   4  -5  100.94   10.26
  -1  -7   5   29.57    3.14
   1   7  -5   28.82    3.64
  -2  -8   5   89.90    2.32
   2   8  -5   90.74    2.81
   2   8  -5   90.55    2.65
  -3  -9   5    7.08    0.99
   3   9  -5    6.33    1.32
   3   9  -5    6.88    1.32
   4  10  -5   19.51    1.49
   4  10  -5   18.76    1.49
   5  11  -5   25.80    3.48
   5  11  -5   24.41    3.31
   6  12  -5    4.17    1.99
   7  13  -5   50.47    3.48
   8  14  -5    0.21    2.15
   9  15  -5    6.69    2.48
  10  16  -5    1.60    2.48
 -16 -12  -5    6.54    2.32
 -16 -12  -5    6.14    2.15
 -15 -11  -5    1.24    1.99
 -15 -11  -5    0.89    1.99
 -14 -10  -5    1.31    2.15
 -14 -10  -5    0.92    1.82
 -13  -9  -5   42.84    3.81
 -13  -9  -5   43.34    3.48
 -12  -8  -5   14.49    1.99
 -12  -8  -5   15.98    1.99
 -11  -7  -5   10.62    1.66
 -11  -7  -5   11.12    1.82
 -10  -6  -5   27.07    1.32
 -10  -6  -5   27.67    1.32
  -9  -5  -5   35.42    5.13
  -9  -5  -5   34.48    5.13
  -8  -4  -5   47.89    6.46
  -8  -4  -5   47.65    6.46
   7   3   5  137.94   12.41
  -7  -3  -5  140.62   13.08
   6   2   5  148.31    6.29
  -5  -1  -5    7.34    0.99
  -4   0  -5   17.12    0.99
  -4   0  -5   17.46    0.66
  -4   0  -5   17.07    0.83
  -3   1  -5   62.27    1.66
  -3   1  -5   62.12    1.66
  -2   2  -5   54.47    6.79
  -2   2  -5   54.57    6.62
  -1   3  -5   84.44    5.13
  -1   3  -5   84.24    5.30
   0   4  -5 1066.69   72.17
   0   4  -5 1072.30   68.86
   1   5  -5   63.34    4.97
   1   5  -5   61.70    4.97
  -2  -6   5    2.88    0.83
   2   6  -5    3.12    1.32
  -3  -7   5    9.98    1.66
   3   7  -5   10.48    1.99
   3   7  -5    9.34    2.15
  -4  -8   5   12.94    1.66
   4   8  -5   13.09    2.15
   4   8  -5   13.58    1.99
  -5  -9   5   22.34    2.81
   5   9  -5   21.90    3.14
   5   9  -5   20.90    2.98
  -6 -10   5   15.32    1.32
   6  10  -5   14.93    1.66
   6  10  -5   15.27    1.49
  -7 -11   5   68.00    3.64
   7  11  -5   68.74    3.97
   8  12  -5    9.12    1.99
   9  13  -5   29.64    2.81
  10  14  -5    9.21    2.48
  11  15  -5    0.85    2.32
 -15 -13  -5    0.27    2.15
 -15 -13  -5    0.12    2.32
 -14 -12  -5    0.67    2.15
 -14 -12  -5    0.37    2.15
 -13 -11  -5    7.54    2.15
 -13 -11  -5    6.85    2.15
 -12 -10  -5   38.50    2.48
 -12 -10  -5   39.89    2.48
 -11  -9  -5   19.87    2.32
 -11  -9  -5   20.52    2.48
 -10  -8  -5    2.07    1.82
  -9  -7  -5   25.59    2.98
  -8  -6  -5   33.37    3.97
  -7  -5  -5   44.72    4.80
   6   4   5   82.91    6.29
  -6  -4  -5   80.03    6.79
  -5  -3  -5   69.72    2.65
  -3  -1  -5   62.27    1.66
  -3  -1  -5   63.36    1.82
  -2   0  -5   15.54    3.31
  -2   0  -5   15.73    3.14
   0   2  -5  853.67   56.77
   0   2  -5  857.05   54.29
   1   3  -5   14.20    3.14
   1   3  -5   11.17    3.31
  -2  -4   5  232.32    6.46
   2   4  -5  233.96    6.79
   2   4  -5  231.47    6.62
  -3  -5   5   10.64    2.48
   3   5  -5    9.99    2.65
  -4  -6   5   13.34    0.66
   4   6  -5   12.69    0.99
   4   6  -5   13.24    0.99
  -5  -7   5   63.12    5.30
   5   7  -5   63.27    5.63
   5   7  -5   62.18    5.63
  -6  -8   5    2.08    0.99
   6   8  -5    1.93    1.16
   6   8  -5    2.38    1.49
  -7  -9   5   80.17    3.81
   7   9  -5   82.60    3.97
   7   9  -5   80.02    4.14
  -8 -10   5    3.63    1.32
   8  10  -5    3.38    1.66
  -9 -11   5   46.39    3.14
   9  11  -5   47.28    3.31
 -10 -12   5    3.57    1.99
  10  12  -5    3.82    2.32
 -11 -13   5    1.04    1.82
  11  13  -5    0.85    2.15
  12  14  -5   16.26    2.48
  13  15  -5    2.43    2.32
 -13 -13  -5   14.37    2.65
 -13 -13  -5   14.23    2.48
 -12 -12  -5   12.82    2.32
 -12 -12  -5   11.88    2.32
 -11 -11  -5    0.89    1.99
 -11 -11  -5    0.39    1.99
 -10 -10  -5   11.25    1.82
  -9  -9  -5   20.01    2.81
  -8  -8  -5   60.19    6.29
  -7  -7  -5   31.54    3.81
  -6  -6  -5   51.43    5.30
  -5  -5  -5   23.08    1.66
  -4  -4  -5    3.25    1.32
  -3  -3  -5  242.94    3.81
  -2  -2  -5   52.59    6.29
  -2  -2  -5   54.43    6.62
  -1  -1  -5   22.12    3.97
   0   0   5  619.58   41.88
   0   0  -5  616.65   40.55
   0   0  -5  612.88   42.54
  -1  -1   5  100.35    7.61
   1   1  -5   98.71    7.78
   1   1  -5   98.71    7.45
  -2  -2   5   59.86    0.50
   2   2  -5   60.31    0.83
   2   2  -5   59.91    0.99
  -3  -3   5   16.68    1.49
   3   3  -5   16.68    1.99
   3   3  -5   15.99    1.66
  -4  -4   5   43.50    2.81
   4   4  -5   42.66    2.98
   4   4  -5   44.05    3.31
  -5  -5   5  110.78    9.93
   5   5  -5  109.99   10.26
  -6  -6   5   11.05    0.66
   6   6  -5   11.10    1.16
   6   6  -5   11.39    0.99
  -7  -7   5  164.38    8.11
   7   7  -5  167.96    8.28
   7   7  -5  167.17    8.28
  -8  -8   5    3.54    0.99
   8   8  -5    3.14    0.99
   8   8  -5    3.19    1.32
  -9  -9   5   35.01    2.15
   9   9  -5   35.16    2.48
 -10 -10   5   29.76    3.31
  10  10  -5   30.51    3.64
 -11 -11   5    2.51    1.66
  11  11  -5    3.15    2.15
 -12 -12   5   18.09    2.48
  12  12  -5   17.55    2.81
 -13 -13   5    1.90    1.82
  13  13  -5    2.35    2.15
  14  14  -5    5.31    2.32
 -12 -14  -5    9.70    2.32
 -12 -14  -5    9.84    2.48
 -11 -13  -5    7.82    2.32
 -10 -12  -5    3.91    1.99
  -9 -11  -5    8.94    2.32
  -8 -10  -5   17.06    2.98
  -7  -9  -5    7.12    1.99
  -6  -8  -5   44.83    3.81
  -5  -7  -5    7.28    1.32
  -4  -6  -5   14.54    1.66
  -3  -5  -5   68.05    2.81
  -2  -4  -5   97.12    7.94
  -2  -4  -5   87.98    8.61
   1   3   5   82.20    4.97
  -1  -3  -5   83.89    5.13
  -1  -3  -5   83.39    4.63
   0   2   5  862.76   57.27
   0  -2  -5  857.39   55.28
   0  -2  -5  860.72   57.93
  -1   1   5  100.00    7.61
   1  -1  -5   99.11    7.78
   1  -1  -5   99.06    7.45
  -2   0   5   25.54    0.99
   2   0  -5   25.74    1.16
   2   0  -5   24.85    1.16
  -3  -1   5    9.88    1.49
   3   1  -5    9.13    1.66
   3   1  -5    9.28    1.82
  -4  -2   5    2.29    0.50
   4   2  -5    2.24    0.66
   4   2  -5    2.34    0.83
  -5  -3   5  166.54   14.40
   5   3  -5  163.71   14.23
  -6  -4   5    2.25    0.66
   6   4  -5    2.00    0.33
   6   4  -5    2.10    0.83
  -7  -5   5  310.99   18.54
   7   5  -5  315.80   18.21
  -8  -6   5   25.65    0.99
   8   6  -5   24.85    0.66
   8   6  -5   24.66    1.16
  -9  -7   5   86.13    5.13
   9   7  -5   86.27    5.46
 -10  -8   5   16.63    2.65
  10   8  -5   16.93    3.14
 -11  -9   5    6.22    1.16
  11   9  -5    6.32    1.49
 -12 -10   5   59.05    3.97
  12  10  -5   58.66    4.30
 -13 -11   5    0.91    1.66
  13  11  -5   -0.04    1.82
 -14 -12   5    4.65    1.82
  14  12  -5    3.61    1.99
 -15 -13   5   14.19    1.82
  15  13  -5   14.59    2.15
 -16 -14   5    8.04    2.15
  16  14  -5    9.98    2.48
 -11 -15  -5    1.00    2.48
 -10 -14  -5    1.24    2.32
  -9 -13  -5   10.19    2.65
  -8 -12  -5    6.18    2.32
  -7 -11  -5   13.77    2.48
  -6 -10  -5   16.24    2.81
  -5  -9  -5    1.11    1.49
  -4  -8  -5    1.73    1.49
  -3  -7  -5   47.24    1.99
  -2  -6  -5   18.40    0.50
  -1  -5  -5    4.74    1.16
   0   4   5 1083.77   74.48
   0  -4  -5 1096.93   75.48
   0  -4  -5 1071.31   71.84
  -1   3   5   11.87    3.14
   1  -3  -5   12.21    3.31
   1  -3  -5   12.96    2.98
  -2   2   5   59.86    0.83
   2  -2  -5   60.16    0.99
   2  -2  -5   60.01    0.83
  -3   1   5    9.93    1.66
   3  -1  -5    9.78    1.82
   3  -1  -5    9.33    1.66
  -4   0   5    3.42    0.99
   4   0  -5    3.62    0.99
   4   0  -5    2.77    1.16
  -5  -1   5   79.05    8.61
   5   1  -5   73.59    8.77
   5   1  -5   79.59    8.61
  -6  -2   5   17.38    0.50
   6   2  -5   17.43    0.17
   6   2  -5   17.48    0.83
  -7  -3   5  375.59   22.18
   7   3  -5  389.25   21.85
   7   3  -5  370.13   22.51
  -8  -4   5    2.05    0.83
   8   4  -5    1.90    0.83
  -9  -5   5  235.30   14.23
   9   5  -5  235.60   14.07
   9   5  -5  236.99   14.40
 -10  -6   5   57.46    5.96
  10   6  -5   54.98    5.96
 -11  -7   5    1.91    1.32
  11   7  -5    1.46    1.66
 -12  -8   5   28.76    2.65
  12   8  -5   29.21    2.98
 -13  -9   5   15.26    1.49
  13   9  -5   15.31    1.82
 -14 -10   5   25.36    1.82
  14  10  -5   25.66    2.15
 -15 -11   5   17.97    1.66
  15  11  -5   18.77    1.99
 -16 -12   5    5.80    1.99
  16  12  -5    6.74    2.32
 -17 -13   5    0.27    1.99
  17  13  -5    0.47    2.15
 -18 -14   5    2.02    2.15
  -9 -15  -5    1.13    2.48
  -8 -14  -5    9.28    2.48
  -7 -13  -5    8.26    2.65
  -6 -12  -5   13.03    2.65
  -5 -11  -5    5.04    2.15
  -4 -10  -5    0.06    1.66
  -3  -9  -5   31.58    2.32
  -2  -8  -5   40.25    4.47
  -1  -7  -5    0.98    0.33
   0   6   5  338.07   17.05
   0  -6  -5  337.72   16.22
  -1   5   5   63.54    4.97
   1  -5  -5   62.60    5.13
   1  -5  -5   61.95    4.47
  -2   4   5  231.62    6.46
   2  -4  -5  230.23    5.96
   2  -4  -5  231.37    6.46
  -3   3   5   15.84    1.99
   3  -3  -5   16.39    1.82
   3  -3  -5   16.78    1.99
  -4   2   5    2.04    0.83
   4  -2  -5    2.44    0.83
   4  -2  -5    2.68    0.83
  -5   1   5   78.35    9.10
   5  -1  -5   80.24    8.94
   5  -1  -5   77.61    9.27
  -6   0   5    0.45    0.66
   6   0  -5    0.90    0.83
  -7  -1   5  263.51   19.20
   7   1  -5  263.56   18.70
   8   2  -5   12.72    1.32
   8   2  -5   12.52    0.83
  -9  -3   5  176.25   11.59
   9   3  -5  178.73   11.59
   9   3  -5  169.15   11.26
 -10  -4   5  108.09   10.43
  10   4  -5  104.26   10.43
 -11  -5   5   20.70    2.32
  11   5  -5   20.20    2.48
 -12  -6   5  127.48    9.43
  12   6  -5  124.21    9.27
 -13  -7   5    3.60    1.16
  13   7  -5    3.85    1.49
 -14  -8   5    0.92    1.32
  14   8  -5    0.83    1.49
 -15  -9   5   34.58    1.66
  15   9  -5   34.97    1.99
 -16 -10   5   34.99    2.65
  16  10  -5   36.52    2.98
 -17 -11   5    1.04    1.99
  17  11  -5    1.93    2.15
 -18 -12   5   -0.10    1.99
  18  12  -5    0.99    2.15
 -19 -13   5    2.59    2.15
  19  13  -5    2.74    2.15
  -7 -15  -5    1.44    2.48
  -6 -14  -5    6.88    2.48
  -5 -13  -5    5.15    2.32
  -4 -12  -5    3.93    2.48
  -3 -11  -5   13.05    1.99
  -2 -10  -5    1.48    1.66
  -1  -9  -5    4.90    1.66
  -2   6   5    3.17    1.49
   2  -6  -5    2.73    1.49
   2  -6  -5    3.08    0.99
  -3   5   5    9.79    2.81
   3  -5  -5   10.24    2.48
   3  -5  -5   11.18    2.98
  -4   4   5   43.45    3.14
   4  -4  -5   43.05    3.31
   4  -4  -5   43.80    2.98
  -5   3   5  167.78   14.73
   5  -3  -5  165.50   14.07
   5  -3  -5  163.76   14.90
  -6   2   5   17.98    0.83
   6  -2  -5   17.58    0.83
   6  -2  -5   17.98    0.83
  -7   1   5  266.05   20.03
   7  -1  -5  261.53   19.37
   7  -1  -5  273.84   20.36
  -8   0   5    6.39    1.49
   8   0  -5    5.99    1.66
  -9  -1   5  166.07   10.76
   9   1  -5  164.13   10.92
   9   1  -5  171.88   10.76
 -10  -2   5  163.35   12.74
  10   2  -5  165.84   12.58
 -11  -3   5    0.23    0.83
  11   3  -5    0.53    0.50
  11   3  -5    0.53    0.33
 -12  -4   5  159.75    9.60
  12   4  -5  148.52    9.43
 -13  -5   5    0.17    0.99
  13   5  -5   -0.17    1.16
 -14  -6   5   61.38    2.98
  14   6  -5   60.64    3.14
 -15  -7   5   50.44    1.99
  15   7  -5   50.59    2.15
 -16  -8   5    3.79    1.66
  16   8  -5    3.94    1.82
 -17  -9   5    1.56    1.66
  17   9  -5    0.97    1.66
 -18 -10   5    5.50    1.99
  18  10  -5    5.20    1.99
 -19 -11   5    8.99    1.99
  19  11  -5    9.19    2.32
 -20 -12   5    3.31    2.15
  20  12  -5    2.87    2.32
  -6 -16  -5    1.45    2.81
  -5 -15  -5    0.63    2.48
  -4 -14  -5   -0.38    2.32
  -3 -13  -5   17.98    2.48
  -2 -12  -5   38.11    3.81
  -1 -11  -5    2.26    1.99
   0 -10  -5   87.54    4.30
  -1   9   5    1.25    1.49
   1  -9  -5    1.20    1.49
  -3   7   5   10.93    2.32
   3  -7  -5    9.84    1.66
   3  -7  -5   10.78    2.32
  -4   6   5   13.14    1.32
   4  -6  -5   12.94    1.32
   4  -6  -5   12.99    0.83
  -5   5   5  113.96   10.76
   5  -5  -5  110.29   10.92
   5  -5  -5  113.12   10.26
  -6   4   5    2.74    0.99
   6  -4  -5    2.74    1.16
   6  -4  -5    2.10    0.83
  -7   3   5  389.84   24.50
   7  -3  -5  389.30   24.83
   7  -3  -5  382.10   23.67
  -8   2   5   13.77    1.32
   8  -2  -5   13.02    1.32
   8  -2  -5   13.57    1.32
  -9   1   5  168.31   11.26
   9  -1  -5  167.41   10.92
   9  -1  -5  169.94   11.42
 -10   0   5   40.28    6.12
  10   0  -5   42.22    6.12
 -11  -1   5    4.68    0.99
  11   1  -5    5.38    0.83
  11   1  -5    5.43    1.32
 -12  -2   5  190.22   12.74
  12   2  -5  174.97   12.74
 -14  -4   5   24.27    1.32
  14   4  -5   24.37    1.49
 -15  -5   5   74.50    1.99
  15   5  -5   75.34    2.32
 -16  -6   5   89.43    5.63
  16   6  -5   87.00    5.79
 -17  -7   5    2.26    1.49
  17   7  -5    1.07    1.66
 -18  -8   5    3.22    1.66
  18   8  -5    2.92    1.82
 -19  -9   5    4.06    1.82
  19   9  -5    3.42    1.82
 -20 -10   5    4.72    2.15
  20  10  -5    5.61    2.48
 -21 -11   5    9.30    2.48
  21  11  -5    9.55    2.65
 -22 -12   5    0.59    2.32
  22  12  -5    0.15    2.15
  -4 -16  -5    0.20    2.65
  -3 -15  -5    3.95    2.48
  -2 -14  -5    1.63    2.48
  -1 -13  -5    0.98    2.15
   0 -12  -5  192.15    8.77
   1 -11  -5   20.66    2.48
  -2  10   5    2.77    1.49
   2 -10  -5    2.67    1.66
  -3   9   5    6.58    1.32
   3  -9  -5    6.88    1.32
  -4   8   5   12.54    2.15
   4  -8  -5   13.33    2.32
   4  -8  -5   13.04    1.66
  -5   7   5   64.07    5.96
   5  -7  -5   63.47    5.46
   5  -7  -5   63.27    6.12
  -6   6   5   10.95    1.16
   6  -6  -5   10.90    1.16
   6  -6  -5   10.85    0.83
  -7   5   5  321.81   22.01
   7  -5  -5  332.84   22.35
   7  -5  -5  329.21   21.19
  -8   4   5    2.10    1.32
   8  -4  -5    2.05    1.16
   8  -4  -5    2.10    1.16
  -9   3   5  178.88   13.08
   9  -3  -5  182.26   13.24
   9  -3  -5  182.21   12.58
 -10   2   5  166.33   13.08
  10  -2  -5  165.39   12.74
  10  -2  -5  164.25   13.24
 -11   1   5    4.73    1.16
  11  -1  -5    5.53    1.32
  11  -1  -5    5.38    0.99
 -12   0   5   80.98    6.29
  12   0  -5   74.62    6.12
  12   0  -5   80.48    6.29
 -13  -1   5    3.49    1.32
  13   1  -5    3.44    1.32
  13   1  -5    3.14    0.83
 -15  -3   5   66.48    1.99
  15   3  -5   66.38    2.32
 -16  -4   5   40.90    4.14
  16   4  -5   40.20    4.30
 -17  -5   5    4.05    1.82
  17   5  -5    4.29    2.15
 -18  -6   5    8.08    1.82
  18   6  -5    7.59    2.15
 -19  -7   5   13.64    1.82
  19   7  -5   14.43    2.32
 -20  -8   5   26.18    2.65
  20   8  -5   26.98    2.98
 -21  -9   5    8.58    2.32
  21   9  -5   10.22    2.65
 -22 -10   5    4.19    1.99
  22  10  -5    4.29    2.15
 -23 -11   5    1.71    2.32
  23  11  -5    2.30    2.32
  -2 -16  -5    0.87    2.81
  -1 -15  -5   -0.18    2.48
   0 -14  -5   43.50    2.98
   1 -13  -5    1.03    2.15
   2 -12  -5   34.87    2.48
  -3  11   5    2.62    1.82
   3 -11  -5    2.47    1.82
  -4  10   5   19.06    1.49
   4 -10  -5   18.61    1.49
  -5   9   5   22.29    3.31
   5  -9  -5   21.30    3.31
  -6   8   5    1.93    1.32
   6  -8  -5    1.89    1.32
   6  -8  -5    1.59    0.83
  -7   7   5  167.07    8.94
   7  -7  -5  167.02    8.28
   7  -7  -5  170.00    9.10
  -8   6   5   24.85    1.32
   8  -6  -5   25.60    1.32
   8  -6  -5   25.20    0.99
  -9   5   5  236.00   15.06
   9  -5  -5  240.57   14.40
   9  -5  -5  237.88   15.23
 -10   4   5  106.70   11.26
  10  -4  -5  111.32   10.92
  10  -4  -5  107.84   11.42
 -11   3   5    0.28    0.99
  11  -3  -5    0.87    0.99
  11  -3  -5    0.87    0.99
 -12   2   5  188.13   14.73
  12  -2  -5  194.24   14.40
  12  -2  -5  189.32   14.90
 -13   1   5    2.84    1.16
  13  -1  -5    2.74    1.32
  13  -1  -5    2.55    0.83
 -14   0   5    4.93    1.16
  14   0  -5    5.48    1.49
  14   0  -5    4.98    0.99
 -17  -3   5    3.89    1.82
  17   3  -5    3.14    1.99
 -18  -4   5   16.69    1.99
  18   4  -5   17.19    2.32
 -19  -5   5   31.59    2.65
  19   5  -5   31.25    2.98
 -20  -6   5    5.28    2.15
  20   6  -5    5.93    2.48
 -21  -7   5   19.52    2.65
  21   7  -5   17.98    2.98
 -22  -8   5    0.26    1.82
  22   8  -5    0.66    1.99
 -23  -9   5    8.98    2.15
  23   9  -5    9.72    2.48
 -24 -10   5    0.91    2.15
  24  10  -5    0.76    2.15
   0 -16  -5   21.96    2.81
   1 -15  -5    2.35    2.48
   2 -14  -5    1.96    2.32
   3 -13  -5    0.81    2.15
  -4  12   5    3.77    1.99
   4 -12  -5    4.02    2.15
  -5  11   5   24.26    3.31
   5 -11  -5   23.86    3.31
  -6  10   5   14.58    1.66
   6 -10  -5   14.33    1.66
  -7   9   5   83.10    4.63
   7  -9  -5   82.36    4.63
   7  -9  -5   81.91    3.97
  -8   8   5    3.29    1.49
   8  -8  -5    3.44    1.49
   8  -8  -5    3.09    0.99
  -9   7   5   85.03    5.46
   9  -7  -5   86.72    5.63
   9  -7  -5   86.82    5.13
 -10   6   5   53.88    5.96
  10  -6  -5   55.42    5.96
  10  -6  -5   56.02    5.63
 -11   5   5   19.65    2.65
  11  -5  -5   22.39    2.81
  11  -5  -5   20.45    2.48
 -12   4   5  159.65   11.42
  12  -4  -5  161.34   11.59
  12  -4  -5  164.41   11.09
 -13   3   5   21.59    2.81
  13  -3  -5   21.54    2.81
  13  -3  -5   21.54    2.65
 -14   2   5   47.61    2.32
  14  -2  -5   49.19    2.48
  14  -2  -5   47.70    2.32
 -15   1   5  115.11    3.97
  15  -1  -5  114.86    3.97
 -16   0   5   16.68    2.65
  16   0  -5   14.99    2.65
 -17  -1   5    1.34    1.32
  17   1  -5    1.00    1.32
 -18  -2   5   24.13    2.81
  18   2  -5   24.93    2.98
 -19  -3   5   40.01    3.31
  19   3  -5   40.56    3.48
 -20  -4   5   46.24    2.98
  20   4  -5   47.24    3.48
 -21  -5   5   24.35    3.81
  21   5  -5   23.41    3.97
 -22  -6   5   15.55    1.99
  22   6  -5   15.45    2.15
 -23  -7   5    8.54    2.15
  23   7  -5    8.54    2.32
 -24  -8   5    1.48    1.99
  24   8  -5    0.93    2.15
 -25  -9   5    6.34    2.15
  25   9  -5    5.59    2.48
   2 -16  -5    1.17    2.48
   3 -15  -5    2.54    2.48
   4 -14  -5    0.87    2.15
  -5  13   5   17.27    2.81
   5 -13  -5   17.62    2.98
  -6  12   5    4.07    1.99
   6 -12  -5    3.22    1.82
  -7  11   5   67.11    3.97
   7 -11  -5   71.57    4.47
  -8  10   5    3.73    1.66
   8 -10  -5    3.28    1.66
  -9   9   5   34.22    2.48
   9  -9  -5   34.42    2.65
   9  -9  -5   35.06    1.99
 -10   8   5   16.53    3.14
  10  -8  -5   17.03    2.81
  10  -8  -5   16.83    3.31
 -11   7   5    1.36    1.66
  11  -7  -5    2.20    1.49
  11  -7  -5    2.75    1.82
 -12   6   5  125.05    9.43
  12  -6  -5  125.65    9.60
  12  -6  -5  125.05    9.10
 -13   5   5    0.47    1.32
  13  -5  -5    0.27    1.32
  13  -5  -5    0.12    1.16
 -14   4   5   25.06    1.49
  14  -4  -5   25.41    1.66
  14  -4  -5   24.62    1.49
 -15   3   5   65.58    1.99
  15  -3  -5   65.93    1.99
  15  -3  -5   65.63    2.15
 -16   2   5   98.56    6.95
  16  -2  -5  100.99    6.95
  16  -2  -5  101.19    6.95
 -17   1   5    1.00    1.32
  17  -1  -5    1.39    1.49
 -18   0   5    1.85    1.32
  18   0  -5    1.99    1.49
 -19  -1   5   23.30    1.99
  19   1  -5   24.14    2.32
 -20  -2   5   39.75    3.31
  20   2  -5   39.25    3.48
 -21  -3   5   64.40    6.29
  21   3  -5   62.96    6.29
 -22  -4   5    0.29    1.66
  22   4  -5    0.29    1.82
 -23  -5   5    7.82    2.15
  23   5  -5    7.03    2.48
 -24  -6   5    5.16    1.99
  24   6  -5    6.16    2.32
 -25  -7   5   11.44    2.32
  25   7  -5   11.59    2.48
 -26  -8   5   -0.25    2.32
  26   8  -5    0.59    2.32
   4 -16  -5   -0.45    2.48
   5 -15  -5    4.82    2.65
  -6  14   5    1.82    1.99
   6 -14  -5    1.77    2.15
  -7  13   5   48.79    3.31
   7 -13  -5   49.83    3.48
  -8  12   5    9.47    1.99
   8 -12  -5    8.68    1.99
  -9  11   5   45.00    2.98
   9 -11  -5   45.44    3.31
 -10  10   5   29.81    3.64
  10 -10  -5   29.36    3.81
  10 -10  -5   30.80    3.31
 -11   9   5    7.37    1.66
  11  -9  -5    6.32    1.16
  11  -9  -5    6.37    1.66
 -12   8   5   28.61    3.14
  12  -8  -5   28.56    2.65
  12  -8  -5   30.95    3.48
 -13   7   5    3.65    1.49
  13  -7  -5    3.65    1.32
  13  -7  -5    4.00    1.49
 -14   6   5   60.59    3.14
  14  -6  -5   61.53    3.48
  14  -6  -5   60.69    2.98
 -15   5   5   74.20    2.15
  15  -5  -5   75.74    2.32
  15  -5  -5   74.89    2.32
 -16   4   5   39.80    4.30
  16  -4  -5   40.30    4.14
  16  -4  -5   41.54    4.30
 -17   3   5    2.95    1.66
  17  -3  -5    3.79    1.82
  17  -3  -5    2.50    1.82
 -18   2   5   23.24    2.65
  18  -2  -5   23.88    2.81
 -19   1   5   23.99    2.15
  19  -1  -5   23.70    2.32
 -20   0   5   20.85    1.99
  20   0  -5   21.25    2.15
 -21  -1   5   20.48    3.48
  21   1  -5   20.23    3.48
 -22  -2   5    2.19    1.49
  22   2  -5    1.80    1.66
 -23  -3   5   39.47    3.48
  23   3  -5   41.41    3.81
 -24  -4   5    0.93    1.99
  24   4  -5    0.34    2.15
 -25  -5   5    5.44    2.32
  25   5  -5    5.34    2.48
 -26  -6   5    3.30    2.15
  26   6  -5    3.05    2.15
 -27  -7   5   15.15    2.48
  27   7  -5   15.65    2.81
   6 -16  -5   -0.40    2.48
  -7  15   5   13.54    2.32
   7 -15  -5   13.89    2.65
  -8  14   5    0.76    2.15
   8 -14  -5    1.05    2.15
  -9  13   5   28.70    2.65
   9 -13  -5   28.60    2.81
 -10  12   5    4.26    2.48
  10 -12  -5    4.06    2.65
 -11  11   5    2.01    1.99
  11 -11  -5    1.91    2.15
 -12  10   5   58.41    4.30
  12 -10  -5   57.66    3.81
  12 -10  -5   59.30    4.63
 -13   9   5   15.07    1.82
  13  -9  -5   15.66    1.66
  13  -9  -5   14.57    1.99
 -14   8   5    0.18    1.49
  14  -8  -5    1.02    1.82
  14  -8  -5    0.63    1.32
 -15   7   5   50.84    2.32
  15  -7  -5   51.43    2.48
  15  -7  -5   51.53    2.15
 -16   6   5   87.89    5.63
  16  -6  -5   88.24    5.79
  16  -6  -5   85.71    5.30
 -17   5   5    4.64    1.99
  17  -5  -5    4.39    1.99
  17  -5  -5    3.40    1.82
 -18   4   5   16.19    1.99
  18  -4  -5   17.58    2.15
  18  -4  -5   16.64    2.15
 -19   3   5   39.46    3.14
  19  -3  -5   40.16    3.31
 -20   2   5   38.65    3.31
  20  -2  -5   40.34    3.64
 -21   1   5   19.58    3.48
  21  -1  -5   20.18    3.64
 -22   0   5    2.37    1.49
  22   0  -5    2.17    1.66
 -23  -1   5    5.54    1.99
  23   1  -5    5.84    2.15
 -24  -2   5    3.44    1.82
  24   2  -5    3.04    1.99
 -25  -3   5   34.78    3.14
  25   3  -5   34.33    3.31
 -26  -4   5    2.05    1.99
  26   4  -5    2.45    2.15
 -27  -5   5   11.81    2.48
  27   5  -5   11.66    2.65
 -28  -6   5    4.63    2.48
  28   6  -5    4.68    2.65
  -8  16   5    0.69    2.32
   8 -16  -5    4.02    2.98
  -9  15   5    5.74    2.32
   9 -15  -5    5.94    2.48
 -10  14   5    9.36    2.48
  10 -14  -5    9.56    2.65
 -11  13   5    1.49    2.15
  11 -13  -5    1.49    2.32
 -12  12   5   17.99    2.98
  12 -12  -5   16.75    2.98
 -13  11   5    0.31    1.82
  13 -11  -5   -0.19    1.49
  13 -11  -5   -0.09    1.99
 -14  10   5   25.41    2.15
  14 -10  -5   26.36    1.99
  14 -10  -5   25.46    2.32
 -15   9   5   33.98    1.99
  15  -9  -5   35.12    1.82
  15  -9  -5   34.28    2.15
 -16   8   5    4.44    1.82
  16  -8  -5    3.89    2.15
  16  -8  -5    3.55    1.49
 -17   7   5    2.16    1.82
  17  -7  -5    1.91    1.82
  17  -7  -5    1.81    1.66
 -18   6   5    7.34    1.99
  18  -6  -5    8.23    1.99
  18  -6  -5    8.78    2.32
 -19   5   5   31.00    2.81
  19  -5  -5   32.04    2.81
  19  -5  -5   32.34    2.98
 -20   4   5   45.85    3.14
  20  -4  -5   46.94    3.14
 -21   3   5   60.78    5.79
  21  -3  -5   62.62    5.79
 -22   2   5    2.69    1.49
  22  -2  -5    2.34    1.66
 -23   1   5    5.09    1.82
  23  -1  -5    5.39    1.99
 -24   0   5   -0.30    1.49
  24   0  -5    0.60    1.82
 -25  -1   5    7.93    2.15
  25   1  -5    8.13    2.32
 -26  -2   5    6.75    1.99
  26   2  -5    7.35    2.15
 -27  -3   5   29.16    2.81
  27   3  -5   29.11    2.98
 -28  -4   5   10.75    2.65
  28   4  -5   11.29    2.81
 -29  -5   5    0.48    2.32
  29   5  -5    0.03    2.32
 -10  16   5    0.86    2.32
  10 -16  -5    2.70    2.98
 -11  15   5    1.59    2.32
  11 -15  -5    0.85    2.48
 -12  14   5   16.66    2.65
  12 -14  -5   17.06    2.81
 -13  13   5    1.86    1.99
  13 -13  -5    1.81    2.15
 -14  12   5    4.20    2.15
  14 -12  -5    4.40    2.48
 -15  11   5   18.47    1.99
  15 -11  -5   18.27    2.15
  15 -11  -5   18.32    1.66
 -16  10   5   33.25    2.48
  16 -10  -5   34.89    2.48
  16 -10  -5   33.40    2.81
 -17   9   5    1.52    1.66
  17  -9  -5    1.22    1.99
  17  -9  -5    1.02    1.49
 -18   8   5    2.87    1.82
  18  -8  -5    2.87    1.99
  18  -8  -5    3.42    1.66
 -19   7   5   14.03    2.15
  19  -7  -5   13.64    2.15
  19  -7  -5   13.24    1.99
 -20   6   5    4.44    1.99
  20  -6  -5    4.39    1.99
  20  -6  -5    5.63    2.32
 -21   5   5   21.77    3.64
  21  -5  -5   24.40    3.64
 -22   4   5    0.04    1.49
  22  -4  -5   -0.50    1.66
 -23   3   5   40.07    3.48
  23  -3  -5   40.12    3.64
 -24   2   5    3.29    1.82
  24  -2  -5    3.29    1.99
 -25   1   5    8.13    2.15
  25  -1  -5    7.24    2.15
 -26   0   5    0.52    1.82
  26   0  -5    0.23    1.99
 -27  -1   5   20.69    2.48
  27   1  -5   20.84    2.81
 -28  -2   5    6.26    2.48
  28   2  -5    6.21    2.81
 -29  -3   5    3.36    2.32
  29   3  -5    2.76    2.48
  30   4  -5    9.32    3.31
 -13  15   5    2.33    2.48
  13 -15  -5    1.78    2.65
 -14  14   5    6.60    2.48
  14 -14  -5    5.56    2.65
 -15  13   5   14.94    2.32
  15 -13  -5   15.23    2.65
 -16  12   5    6.20    2.32
  16 -12  -5    6.45    1.99
  16 -12  -5    5.80    2.65
 -17  11   5    0.64    2.15
  17 -11  -5    1.18    2.48
  17 -11  -5    1.58    1.99
 -18  10   5    4.41    1.99
  18 -10  -5    5.95    2.48
  18 -10  -5    4.21    1.82
 -19   9   5    4.31    1.99
  19  -9  -5    3.57    1.66
  19  -9  -5    4.71    2.32
 -20   8   5   24.54    2.65
  20  -8  -5   26.13    2.48
  20  -8  -5   26.03    2.98
 -21   7   5   19.32    3.14
  21  -7  -5   20.86    3.31
  21  -7  -5   20.42    2.98
 -22   6   5   15.01    1.82
  22  -6  -5   14.91    1.82
 -23   5   5    6.83    2.15
  23  -5  -5    6.43    1.99
 -24   4   5    0.54    1.82
  24  -4  -5    1.28    1.99
 -25   3   5   32.39    2.65
  25  -3  -5   32.89    2.81
 -26   2   5    6.90    1.82
  26  -2  -5    6.80    1.99
 -27   1   5   21.18    2.65
  27  -1  -5   21.63    2.81
 -28   0   5    9.67    2.48
  28   0  -5    8.93    2.65
 -29  -1   5    2.37    2.15
  29   1  -5    2.52    2.32
 -30  -2   5   10.40    2.98
  30   2  -5    8.51    2.98
 -15  15   5    5.29    2.65
  15 -15  -5    4.84    2.81
 -16  14   5    7.89    2.48
  16 -14  -5    9.68    2.98
 -17  13   5    0.82    2.32
  17 -13  -5    1.07    2.65
 -18  12   5    1.24    2.32
  18 -12  -5    0.05    1.82
  18 -12  -5    0.99    2.65
 -19  11   5   10.13    2.32
  19 -11  -5   10.97    2.65
  19 -11  -5    9.78    2.15
 -20  10   5    4.37    2.15
  20 -10  -5    5.41    2.65
  20 -10  -5    4.67    2.15
 -21   9   5    8.98    2.65
  21  -9  -5   10.62    2.98
  21  -9  -5   10.02    2.48
 -22   8   5    0.26    1.82
  22  -8  -5    0.91    2.15
  22  -8  -5    0.51    1.82
 -23   7   5    7.65    1.99
  23  -7  -5    7.90    1.99
 -24   6   5    4.92    1.82
  24  -6  -5    4.77    1.82
 -25   5   5    4.69    2.15
  25  -5  -5    5.44    2.15
 -26   4   5    2.20    1.82
  26  -4  -5    3.04    2.15
 -27   3   5   28.61    2.65
  27  -3  -5   27.97    2.81
 -28   2   5    6.80    2.48
  28  -2  -5    4.82    2.48
 -29   1   5    2.92    2.15
  29  -1  -5    3.12    2.32
 -30   0   5   14.02    3.31
  30   0  -5   12.48    3.31
 -18  14   5    2.76    2.48
  18 -14  -5    2.91    2.81
 -19  13   5    2.29    2.32
  19 -13  -5    3.53    2.15
  19 -13  -5    2.09    2.48
 -20  12   5    2.37    2.32
  20 -12  -5    3.07    2.65
  20 -12  -5    2.92    2.15
 -21  11   5    9.35    2.65
  21 -11  -5    8.80    2.32
  21 -11  -5    9.84    2.98
 -22  10   5    3.84    2.15
  22 -10  -5    3.49    2.32
  22 -10  -5    3.99    1.99
 -23   9   5    7.78    2.15
  23  -9  -5    9.07    2.48
  23  -9  -5    9.37    2.15
 -24   8   5    1.33    2.15
  24  -8  -5    0.78    1.99
 -25   7   5   10.20    1.99
  25  -7  -5   12.53    2.32
 -26   6   5    2.85    1.82
  26  -6  -5    3.85    1.99
 -27   5   5   11.36    2.48
  27  -5  -5   11.16    2.48
 -28   4   5   11.15    2.65
  28  -4  -5   11.54    2.65
 -29   3   5    1.37    1.99
  29  -3  -5    2.51    2.32
 -30   2   5    8.91    2.65
  30  -2  -5    9.21    2.98
 -22  12   5    0.94    2.32
  22 -12  -5    0.35    2.15
  22 -12  -5    1.04    2.65
 -23  11   5    2.65    2.48
  23 -11  -5    2.40    2.81
  23 -11  -5    2.50    2.15
 -24  10   5    0.26    2.15
  24 -10  -5    0.36    1.99
  24 -10  -5    1.90    2.65
 -25   9   5    5.64    2.32
  25  -9  -5    6.39    2.32
 -26   8   5   -0.65    2.15
  26  -8  -5   -0.45    1.99
 -27   7   5   14.01    2.32
  27  -7  -5   15.95    2.48
 -28   6   5    5.42    2.48
  28  -6  -5    5.03    2.48
 -29   5   5   -0.17    2.15
  29  -5  -5    0.78    2.32
 -30   4   5    8.27    2.98
  23  -5   6   17.49    2.98
 -23   5  -6   17.89    3.31
  22  -6   6    6.29    2.65
 -22   6  -6    6.94    2.81
  21  -7   6    3.42    2.15
 -21   7  -6    4.16    2.32
  20  -8   6    0.29    2.48
 -20   8  -6    0.04    2.48
  19  -9   6    1.37    2.48
 -19   9  -6    1.28    2.32
  18 -10   6    5.37    2.98
 -18  10  -6    3.88    2.65
  17 -11   6    0.12    2.48
 -17  11  -6    0.37    2.48
 -24   2  -6    7.57    2.81
  23  -3   6   17.49    2.65
 -23   3  -6   18.18    2.98
  22  -4   6    3.60    2.48
 -22   4  -6    7.92    3.14
  21  -5   6    3.90    2.15
 -21   5  -6    4.00    2.32
  20  -6   6    0.00    2.15
 -20   6  -6    0.54    2.32
  19  -7   6    1.08    2.48
 -19   7  -6    0.39    2.15
  18  -8   6    7.15    2.98
 -18   8  -6    7.94    2.98
  17  -9   6    0.98    2.48
 -17   9  -6    0.43    2.32
  16 -10   6   24.49    3.64
 -16  10  -6   23.59    3.31
  15 -11   6    3.28    2.65
 -15  11  -6    3.09    2.48
  14 -12   6    4.15    2.65
 -14  12  -6    3.40    2.48
  13 -13   6    0.07    2.65
 -13  13  -6    0.21    2.48
 -24   0  -6    2.56    2.65
 -23   1  -6   27.38    3.64
  22  -2   6   12.71    2.98
 -22   2  -6   13.85    3.31
  21  -3   6    4.08    2.15
 -21   3  -6    3.63    2.15
  20  -4   6   -0.36    1.99
 -20   4  -6    0.43    2.15
  19  -5   6    1.12    2.15
 -19   5  -6    1.12    2.15
  18  -6   6    7.88    2.81
 -18   6  -6    7.93    2.65
  17  -7   6    2.70    2.15
 -17   7  -6    3.84    2.32
  16  -8   6   77.63    4.97
 -16   8  -6   75.95    4.63
  15  -9   6    5.14    2.81
 -15   9  -6    3.35    2.48
  14 -10   6    3.91    2.48
 -14  10  -6    2.82    2.15
  13 -11   6    2.81    2.48
 -13  11  -6    3.15    2.48
  12 -12   6    0.77    2.32
 -12  12  -6    1.46    2.32
  11 -13   6    6.30    2.65
 -11  13  -6    7.30    2.48
  10 -14   6    0.81    2.81
 -10  14  -6    0.06    2.32
 -24  -2  -6    8.46    2.65
 -23  -1  -6   26.48    3.31
 -22   0  -6    9.45    2.81
 -21   1  -6    4.04    1.99
  20  -2   6    1.08    2.15
 -20   2  -6    1.03    1.99
  19  -3   6    0.81    1.99
 -19   3  -6    0.71    1.99
  18  -4   6   15.82    3.48
 -18   4  -6   16.57    3.48
  17  -5   6    1.10    1.99
 -17   5  -6    1.40    1.99
  16  -6   6   45.65    4.30
 -16   6  -6   46.99    4.30
  15  -7   6    4.72    2.65
 -15   7  -6    4.08    2.48
  14  -8   6   17.33    2.32
 -14   8  -6   18.23    2.15
  13  -9   6    8.34    2.98
 -13   9  -6    9.33    2.81
  12 -10   6    3.46    2.48
 -12  10  -6    3.11    2.15
  11 -11   6   10.09    2.81
 -11  11  -6   10.89    2.65
  10 -12   6    0.74    2.48
 -10  12  -6   -0.35    2.15
   9 -13   6    1.97    2.48
  -9  13  -6    1.97    2.32
   8 -14   6    7.02    2.32
  -8  14  -6    7.91    2.48
   7 -15   6    1.97    2.81
  -7  15  -6    2.62    2.65
 -23  -3  -6   19.23    2.98
 -22  -2  -6   14.15    3.14
 -21  -1  -6    3.84    1.99
 -20   0  -6    0.70    1.99
  19  -1   6    3.95    1.99
 -19   1  -6    4.00    1.99
  18  -2   6   15.86    3.31
 -18   2  -6   16.30    3.31
  17  -3   6    9.67    1.99
 -17   3  -6    9.82    1.99
  16  -4   6  153.74    8.28
 -16   4  -6  154.08    8.44
  15  -5   6    7.29    2.48
 -15   5  -6    6.65    2.32
  14  -6   6    2.92    1.99
 -14   6  -6    2.77    1.66
  13  -7   6    7.57    3.14
 -13   7  -6    7.18    2.81
  12  -8   6    1.16    2.32
 -12   8  -6    0.62    1.82
  11  -9   6   47.03    3.81
 -11   9  -6   45.09    3.31
  10 -10   6   -0.39    1.99
 -10  10  -6    0.41    1.99
   9 -11   6    9.05    2.32
  -9  11  -6    8.60    2.15
   8 -12   6   16.81    2.15
  -8  12  -6   16.81    2.15
   7 -13   6   -0.36    2.32
  -7  13  -6    0.24    2.15
   6 -14   6    1.08    2.48
  -6  14  -6    1.98    2.48
   5 -15   6    3.81    2.65
  -5  15  -6    4.65    2.48
 -23  -5  -6   19.18    2.98
 -22  -4  -6    5.79    2.48
 -21  -3  -6    3.24    1.99
 -20  -2  -6    0.73    1.99
 -19  -1  -6    4.55    1.99
 -18   0  -6   23.41    3.64
  17  -1   6    0.06    1.66
 -17   1  -6    0.80    1.82
  16  -2   6   99.89    7.12
 -16   2  -6   98.30    7.28
  15  -3   6    3.76    2.32
 -15   3  -6    3.17    2.15
  14  -4   6   41.19    2.81
 -14   4  -6   40.84    2.65
  13  -5   6   11.43    3.14
 -13   5  -6   13.72    3.31
  12  -6   6   19.18    2.48
 -12   6  -6   19.82    2.15
  11  -7   6   20.67    2.81
 -11   7  -6   20.27    2.65
  10  -8   6    0.06    1.99
 -10   8  -6   -0.49    1.66
   9  -9   6   23.85    2.48
  -9   9  -6   24.69    2.48
   8 -10   6   20.40    2.15
  -8  10  -6   20.45    1.99
   7 -11   6    1.73    2.15
  -7  11  -6    3.02    2.15
   6 -12   6    0.53    2.32
  -6  12  -6    0.68    2.15
   5 -13   6    1.45    2.32
  -5  13  -6    2.39    2.32
   4 -14   6   31.24    2.98
  -4  14  -6   32.83    2.98
   3 -15   6    1.02    2.32
  -3  15  -6    1.71    2.32
 -22  -6  -6    7.04    2.48
 -21  -5  -6    3.36    1.99
 -20  -4  -6   -0.31    1.82
 -19  -3  -6    0.71    1.99
 -18  -2  -6   17.25    3.31
 -17  -1  -6    1.15    1.82
  16   0   6  167.51    9.60
 -16   0  -6  168.10    9.93
  15  -1   6   15.18    3.14
 -15   1  -6   15.33    3.14
  14  -2   6   20.35    1.66
 -14   2  -6   21.29    1.82
  13  -3   6   10.86    3.48
 -13   3  -6   10.91    3.48
  12  -4   6    0.26    1.66
 -12   4  -6   -0.19    1.32
  11  -5   6   63.08    3.64
 -11   5  -6   61.98    3.48
  10  -6   6    0.70    1.82
 -10   6  -6    0.70    1.66
  -9   7  -6    9.19    1.66
   8  -8   6   25.67    1.82
  -8   8  -6   26.16    1.66
   7  -9   6    3.94    1.99
  -7   9  -6    5.43    1.99
   6 -10   6    8.09    2.98
  -6  10  -6    6.90    2.65
  -5  11  -6   17.93    2.65
  -4  12  -6   37.86    3.14
  -3  13  -6    0.31    2.15
  -2  14  -6    9.96    2.65
  -1  15  -6    3.09    2.32
 -21  -7  -6    3.52    2.15
 -21  -7  -6    3.72    1.99
 -20  -6  -6    0.14    1.99
 -19  -5  -6    1.66    1.99
 -18  -4  -6   18.21    3.64
 -17  -3  -6    9.67    1.99
 -16  -2  -6  101.48    7.78
 -15  -1  -6   15.23    3.14
  14   0   6   12.67    1.49
 -14   0  -6   13.02    1.49
  13  -1   6   23.89    4.30
 -13   1  -6   20.71    4.30
  12  -2   6   11.34    1.99
 -12   2  -6   10.05    1.82
  11  -3   6   54.95    3.97
 -11   3  -6   53.85    3.97
  10  -4   6    6.90    1.82
 -10   4  -6    7.05    1.66
   9  -5   6   58.66    3.64
  -9   5  -6   61.29    3.64
   8  -6   6   40.28    1.82
  -8   6  -6   41.42    1.49
  -7   7  -6    0.57    1.49
  -6   8  -6    2.42    1.99
  -5   9  -6    7.32    2.15
  -5   9  -6    7.86    2.32
  -4  10  -6  144.46    6.29
  -4  10  -6  143.71    6.46
  -3  11  -6    7.88    1.99
  -3  11  -6    8.17    2.15
  -2  12  -6   14.13    2.32
  -2  12  -6   14.13    2.48
  -1  13  -6    1.81    2.15
  -1  13  -6    2.16    2.32
   0  14  -6    2.39    2.32
   0  14  -6    1.84    2.65
   1  15  -6    0.84    2.65
   2  16  -6    1.52    2.65
 -20  -8  -6    0.19    1.99
 -20  -8  -6   -0.41    1.99
 -19  -7  -6    0.59    1.99
 -19  -7  -6   -0.01    1.82
 -18  -6  -6    7.73    2.15
 -18  -6  -6    9.42    2.48
 -17  -5  -6    1.35    1.82
 -17  -5  -6    1.64    1.66
 -16  -4  -6  160.24    9.43
 -16  -4  -6  158.60    9.27
 -15  -3  -6    4.06    2.15
 -14  -2  -6   21.34    1.66
  13   1   6   23.64    4.47
 -13  -1  -6   23.84    4.63
  12   0   6   25.10    2.48
 -12   0  -6   24.85    2.48
  11  -1   6   75.71    4.30
 -11   1  -6   73.03    4.14
  10  -2   6    0.76    1.49
 -10   2  -6    0.36    1.16
   9  -3   6   54.78    3.64
  -9   3  -6   60.93    3.64
   8  -4   6  101.48    3.14
  -8   4  -6  100.14    2.81
  -7   5  -6   45.95    3.31
  -6   6  -6   17.21    4.30
  -6   6  -6   17.16    4.30
  -5   7  -6    2.79    1.82
  -5   7  -6    3.59    1.82
  -4   8  -6   59.94    4.14
  -4   8  -6   60.63    4.14
  -3   9  -6    0.45    1.49
  -3   9  -6    0.05    1.66
  -2  10  -6   51.77    2.98
  -2  10  -6   52.91    2.98
  -1  11  -6    4.00    1.82
  -1  11  -6    2.71    1.99
   0  12  -6    4.33    2.32
   0  12  -6    3.44    2.48
   1  13  -6    1.26    2.15
   1  13  -6    0.06    2.15
   2  14  -6    9.62    2.65
   3  15  -6    0.37    2.48
   4  16  -6    6.06    2.81
 -19  -9  -6    1.28    2.15
 -19  -9  -6    1.03    2.15
 -18  -8  -6    9.48    2.81
 -18  -8  -6    7.89    2.65
 -17  -7  -6    3.34    1.99
 -17  -7  -6    2.90    1.82
 -16  -6  -6   47.14    4.14
 -16  -6  -6   47.49    4.14
 -15  -5  -6    8.04    2.15
 -15  -5  -6    7.39    2.32
 -14  -4  -6   41.53    2.48
 -14  -4  -6   42.97    2.81
 -13  -3  -6   10.86    3.31
 -13  -3  -6   10.81    3.31
 -12  -2  -6   10.14    1.66
 -12  -2  -6   10.09    1.32
  11   1   6   73.38    4.14
 -11  -1  -6   75.56    4.30
  10   0   6    5.18    1.49
 -10   0  -6    6.02    1.49
   9  -1   6   54.27    1.99
  -9   1  -6   52.58    1.66
   8  -2   6   58.58    1.49
  -7   3  -6   10.40    1.82
  -6   4  -6    4.35    1.49
  -6   4  -6    4.84    1.66
  -5   5  -6   92.94    6.29
  -5   5  -6   94.28    6.12
  -4   6  -6  383.44   18.21
  -4   6  -6  376.94   18.87
  -3   7  -6    1.92    1.82
  -3   7  -6    0.78    1.49
  -2   8  -6    3.35    1.66
  -2   8  -6    3.45    1.49
  -1   9  -6    5.87    1.32
  -1   9  -6    5.58    1.66
   0  10  -6   14.03    2.65
   0  10  -6   15.52    2.48
   1  11  -6    2.78    1.99
   1  11  -6    1.99    2.15
   2  12  -6   20.27    2.48
   2  12  -6   20.92    2.81
   3  13  -6   12.91    2.65
   4  14  -6   12.93    2.65
   5  15  -6    3.50    2.65
 -18 -10  -6    4.08    2.32
 -18 -10  -6    4.08    2.32
 -17  -9  -6    1.47    2.15
 -17  -9  -6    1.13    1.99
 -16  -8  -6   76.39    4.47
 -16  -8  -6   78.63    4.47
 -15  -7  -6    4.22    2.15
 -15  -7  -6    5.32    2.32
 -14  -6  -6    3.02    1.66
 -14  -6  -6    3.17    1.49
 -13  -5  -6   12.18    2.98
 -13  -5  -6   13.02    2.98
 -12  -4  -6    0.16    1.49
 -12  -4  -6    0.46    1.32
 -11  -3  -6   55.64    4.14
 -11  -3  -6   56.44    4.14
  10   2   6    0.96    1.32
 -10  -2  -6    0.21    0.99
 -10  -2  -6    0.66    1.32
   9   1   6   56.80    2.65
  -9  -1  -6   59.73    2.81
  -9  -1  -6   57.74    2.48
   8   0   6   55.82    1.32
  -7   1  -6   13.82    0.33
  -6   2  -6   20.34    4.97
  -6   2  -6   19.15    5.13
  -5   3  -6   13.20    2.65
  -5   3  -6   14.24    2.65
  -4   4  -6  133.28    7.94
  -4   4  -6  130.65    8.11
  -3   5  -6   43.08    2.65
  -3   5  -6   43.53    2.81
  -2   6  -6  219.03   10.10
  -2   6  -6  217.59   10.43
  -1   7  -6    8.56    2.98
  -1   7  -6    7.07    2.81
   0   8  -6    6.65    1.49
   0   8  -6    6.80    1.32
   1   9  -6    0.28    1.32
   1   9  -6    0.33    1.66
   2  10  -6   32.09    2.65
   2  10  -6   32.89    2.48
   3  11  -6   24.31    2.98
   3  11  -6   24.06    2.65
   4  12  -6   36.65    2.98
   5  13  -6   16.60    2.98
   6  14  -6   -0.08    2.32
   7  15  -6    2.18    2.65
 -17 -11  -6    0.17    2.15
 -17 -11  -6    0.67    2.32
 -16 -10  -6   24.49    2.98
 -16 -10  -6   23.29    2.98
 -15  -9  -6    3.94    2.15
 -15  -9  -6    3.99    2.15
 -14  -8  -6   17.88    1.99
 -14  -8  -6   17.38    1.82
 -13  -7  -6    6.38    2.48
 -13  -7  -6    7.57    2.48
 -12  -6  -6   19.57    1.99
 -12  -6  -6   19.13    1.99
 -11  -5  -6   64.27    3.81
 -11  -5  -6   63.67    3.64
 -10  -4  -6    7.94    1.66
 -10  -4  -6    7.84    1.49
  -9  -3  -6   59.84    3.97
  -9  -3  -6   61.83    4.14
   8   2   6   59.62    1.32
  -8  -2  -6   60.56    1.32
  -8  -2  -6   59.52    1.49
  -5   1  -6   27.35    2.81
  -5   1  -6   28.55    2.81
  -4   2  -6  379.37   22.51
  -4   2  -6  380.66   21.52
  -3   3  -6   -0.13    0.83
  -3   3  -6    0.22    1.16
  -2   4  -6   51.68    2.32
  -2   4  -6   52.82    2.32
  -1   5  -6   39.44    1.16
  -1   5  -6   39.30    1.32
   0   6  -6  135.18   10.10
   0   6  -6  136.13    9.77
   1   7  -6   19.61    2.81
   1   7  -6   16.78    2.65
   2   8  -6   13.54    1.82
   2   8  -6   12.95    1.99
   3   9  -6   14.35    1.66
   3   9  -6   14.40    1.99
   4  10  -6   26.81    2.32
   4  10  -6   27.40    2.15
   5  11  -6   25.77    3.48
   6  12  -6    1.74    2.15
   7  13  -6   12.92    2.98
   8  14  -6    9.07    2.48
   9  15  -6    0.64    2.48
 -15 -11  -6    3.53    2.15
 -15 -11  -6    3.33    2.32
 -14 -10  -6    2.91    1.99
 -14 -10  -6    4.16    1.99
 -13  -9  -6    9.53    2.65
 -13  -9  -6    9.63    2.65
 -12  -8  -6    0.47    1.66
 -12  -8  -6    0.42    1.82
 -11  -7  -6   21.22    2.65
 -11  -7  -6   21.27    2.81
 -10  -6  -6    1.10    1.49
 -10  -6  -6    0.85    1.49
  -9  -5  -6   64.07    4.47
  -9  -5  -6   65.06    4.30
  -8  -4  -6  102.22    2.98
  -8  -4  -6  100.93    2.98
  -7  -3  -6   10.05    1.66
  -7  -3  -6   10.00    1.49
  -5  -1  -6   27.40    2.65
  -5  -1  -6   29.44    2.65
  -4   0  -6  321.72   20.19
  -4   0  -6  324.65   20.69
  -4   0  -6  322.21   21.19
  -3   1  -6    0.61    0.83
  -3   1  -6    0.46    0.99
  -2   2  -6  116.05    6.46
  -2   2  -6  115.81    6.29
  -1   3  -6    6.60    0.99
  -1   3  -6    6.15    1.16
   0   4  -6   22.32    3.31
   0   4  -6   23.07    3.14
   1   5  -6    2.42    1.16
   1   5  -6    2.77    0.99
   2   6  -6  131.57    2.98
   3   7  -6   65.12    2.81
   4   8  -6   45.40    1.99
   4   8  -6   45.70    1.82
   5   9  -6   22.87    2.98
   5   9  -6   23.56    3.14
   6  10  -6    1.91    1.99
   7  11  -6   10.51    2.98
   8  12  -6    7.21    2.32
   9  13  -6    6.98    2.32
  10  14  -6    2.35    2.48
  11  15  -6   -0.13    2.48
 -14 -12  -6    3.05    2.15
 -14 -12  -6    3.55    2.15
 -13 -11  -6    3.70    2.48
 -13 -11  -6    3.25    2.15
 -12 -10  -6    3.41    2.15
 -12 -10  -6    2.86    1.82
 -11  -9  -6   46.63    3.48
 -11  -9  -6   47.57    3.31
 -10  -8  -6    0.45    1.66
  -9  -7  -6   10.04    1.66
  -8  -6  -6   42.66    1.66
  -7  -5  -6   45.15    2.98
  -6  -4  -6    5.19    1.49
  -5  -3  -6    5.95    0.33
  -3  -1  -6    0.41    0.83
  -3  -1  -6    0.71    0.83
  -2   0  -6  195.05    6.12
  -2   0  -6  197.73    6.46
  -1   1  -6    6.53    1.32
  -1   1  -6    6.88    1.49
   0   2  -6   64.47    5.46
   0   2  -6   64.97    5.63
   1   3  -6    1.91    1.32
   1   3  -6    1.86    1.16
   2   4  -6  137.78    6.29
   2   4  -6  136.44    6.29
   3   5  -6   27.68    1.99
   3   5  -6   28.37    2.32
   5   7  -6   94.37    7.28
   5   7  -6   95.66    7.45
   6   8  -6   13.41    2.81
   6   8  -6   12.02    2.81
   7   9  -6   13.43    2.65
   8  10  -6   19.87    2.81
   9  11  -6    4.27    2.15
  10  12  -6    0.75    1.99
  11  13  -6    1.47    2.15
  12  14  -6    0.40    2.32
 -13 -13  -6   -0.08    2.15
 -13 -13  -6   -0.18    2.32
 -12 -12  -6    1.17    2.15
 -12 -12  -6    0.87    2.15
 -11 -11  -6   11.38    2.48
 -11 -11  -6   10.44    2.48
 -10 -10  -6    0.11    1.82
  -9  -9  -6   24.45    2.32
  -8  -8  -6   26.71    1.66
  -7  -7  -6    0.23    1.32
  -6  -6  -6   19.49    4.63
  -5  -5  -6   91.90    5.79
  -3  -3  -6   -0.03    0.50
  -3  -3  -6    0.46    0.83
  -2  -2  -6  117.54    6.46
  -2  -2  -6  114.47    6.12
  -1  -1  -6    6.73    1.32
  -1  -1  -6    6.98    1.49
   0   0   6   89.04    7.28
   0   0  -6   88.89    7.61
   0   0  -6   90.93    7.28
  -1  -1   6    6.30    1.49
   1   1  -6    6.94    1.66
   1   1  -6    6.75    1.82
  -2  -2   6  106.46    4.30
   2   2  -6  106.21    4.63
   2   2  -6  108.29    4.63
  -3  -3   6   84.52    6.29
   3   3  -6   84.03    6.62
   3   3  -6   81.25    6.62
  -4  -4   6  211.03    5.96
   4   4  -6  209.69    6.29
   4   4  -6  207.31    6.29
  -5  -5   6   48.49    4.80
   5   5  -6   47.84    4.97
  -6  -6   6    2.62    1.16
   6   6  -6    2.77    1.32
  -7  -7   6   45.83    4.80
   7   7  -6   45.14    4.97
   7   7  -6   45.93    5.13
  -8  -8   6   68.57    5.63
   8   8  -6   67.53    5.96
   9   9  -6    5.18    1.66
  10  10  -6    1.41    1.99
  11  11  -6    4.58    1.99
  12  12  -6    1.17    2.15
  13  13  -6    7.81    2.48
  14  14  -6   19.93    2.98
 -11 -13  -6    7.35    2.48
 -11 -13  -6    7.55    2.48
 -10 -12  -6    0.35    2.15
  -9 -11  -6    9.15    2.15
  -8 -10  -6   19.96    1.82
  -7  -9  -6    4.59    1.99
  -6  -8  -6    2.42    1.82
  -5  -7  -6    4.03    1.82
  -4  -6  -6  383.29   19.53
  -3  -5  -6   35.58    0.33
  -1  -3  -6    6.65    0.83
  -1  -3  -6    6.10    0.99
   0   2   6   65.66    5.63
   0  -2  -6   65.51    5.46
   0  -2  -6   66.01    5.79
  -1   1   6    5.95    1.66
   1  -1  -6    6.50    1.82
   1  -1  -6    6.60    1.66
  -2   0   6  169.15    7.28
   2   0  -6  169.15    7.28
   2   0  -6  170.34    7.45
  -3  -1   6   62.47    4.63
   3   1  -6   60.93    4.63
   3   1  -6   62.07    4.63
  -4  -2   6   28.14    1.32
   4   2  -6   29.09    1.49
   4   2  -6   29.18    1.82
  -5  -3   6  215.12   16.39
   5   3  -6  204.99   16.72
   5   3  -6  215.22   16.22
  -6  -4   6    2.00    0.83
   6   4  -6    1.85    0.83
   6   4  -6    1.85    1.32
  -7  -5   6   33.88    4.63
   7   5  -6   35.86    4.80
  -8  -6   6   31.45    3.31
   8   6  -6   31.65    3.48
  -9  -7   6   18.06    1.66
   9   7  -6   17.96    2.15
 -10  -8   6   28.35    2.32
  10   8  -6   28.05    2.81
 -11  -9   6    0.53    1.32
  11   9  -6    0.78    1.82
 -12 -10   6    4.66    1.49
  12  10  -6    3.96    1.82
  13  11  -6   16.95    2.65
  14  12  -6   35.74    2.98
  15  13  -6    3.36    2.48
  16  14  -6   13.29    2.65
 -10 -14  -6   -0.39    2.32
  -9 -13  -6    1.07    2.32
  -8 -12  -6   17.21    2.15
  -7 -11  -6    3.17    2.15
  -6 -10  -6    7.90    2.81
  -5  -9  -6    7.67    2.15
  -4  -8  -6   61.63    4.30
  -3  -7  -6    1.42    1.49
  -2  -6  -6  182.88    2.48
  -1  -5  -6   39.74    0.83
  -1  -5  -6   38.45    0.66
   0   4   6   23.56    3.31
   0  -4  -6   24.31    3.48
   0  -4  -6   23.71    2.98
  -1   3   6    1.96    1.32
   1  -3  -6    2.66    1.32
   1  -3  -6    2.41    1.16
  -2   2   6  106.95    4.63
   2  -2  -6  108.19    4.80
   2  -2  -6  106.90    4.63
  -3   1   6   63.76    4.80
   3  -1  -6   63.66    4.80
   3  -1  -6   60.53    4.97
  -4   0   6  177.93    4.80
   4   0  -6  179.67    4.97
   4   0  -6  177.53    4.97
  -5  -1   6   80.73    7.94
   5   1  -6   78.69    8.11
   5   1  -6   83.21    7.94
  -6  -2   6   64.31    5.96
   6   2  -6   61.48    5.96
   6   2  -6   63.86    6.12
  -7  -3   6  196.11   15.23
   7   3  -6  182.90   15.39
   7   3  -6  194.17   15.06
  -8  -4   6   45.35    5.79
   8   4  -6   41.73    5.79
  -9  -5   6   26.54    2.32
   9   5  -6   28.57    2.15
 -10  -6   6    1.85    0.99
  10   6  -6    1.85    1.32
 -11  -7   6    5.28    0.99
  11   7  -6    5.03    1.49
 -12  -8   6    1.85    1.32
  12   8  -6    1.65    1.82
 -13  -9   6    5.71    1.49
  13   9  -6    6.46    1.99
 -14 -10   6   49.83    3.81
  14  10  -6   48.63    4.14
 -15 -11   6    0.24    1.82
  15  11  -6    1.23    2.15
  16  12  -6   12.29    2.48
  17  13  -6    0.06    2.32
  -8 -14  -6    7.51    2.32
  -7 -13  -6   -0.36    2.15
  -6 -12  -6    0.48    2.15
  -5 -11  -6   16.84    2.48
  -4 -10  -6  143.66    6.29
  -3  -9  -6    0.05    1.66
  -2  -8  -6    3.35    1.49
  -1  -7  -6    7.42    2.81
   0   6   6  135.93    9.43
   0  -6  -6  130.46    9.43
  -1   5   6    2.38    0.99
   1  -5  -6    2.72    0.66
   1  -5  -6    2.47    1.16
  -2   4   6  138.08    6.62
   2  -4  -6  137.83    6.12
   2  -4  -6  139.07    6.62
  -3   3   6   84.67    6.95
   3  -3  -6   84.42    6.79
   3  -3  -6   86.21    7.12
  -4   2   6   28.84    1.66
   4  -2  -6   29.28    1.66
   4  -2  -6   29.58    1.82
  -5   1   6   80.68    8.11
   5  -1  -6   80.13    8.11
   5  -1  -6   81.82    7.94
  -6   0   6    1.95    0.99
   6   0  -6    2.20    0.99
   6   0  -6    2.40    1.32
  -7  -1   6   37.05    4.63
   7   1  -6   37.90    4.80
   7   1  -6   37.50    4.63
  -8  -2   6  222.12   15.89
   8   2  -6  220.23   15.72
   8   2  -6  208.17   16.06
  -9  -3   6  121.60    6.62
   9   3  -6  122.04    6.62
   9   3  -6  127.60    6.95
  10   4  -6    9.51    1.32
 -11  -5   6    7.84    0.99
  11   5  -6    7.59    1.16
 -12  -6   6   16.80    1.16
  12   6  -6   16.41    1.49
 -13  -7   6   20.37    2.65
  13   7  -6   22.86    3.14
 -14  -8   6   88.17    3.97
  14   8  -6   88.77    4.30
 -15  -9   6   14.88    2.15
  15   9  -6   14.13    2.48
 -16 -10   6   36.50    2.32
  16  10  -6   37.00    2.81
 -17 -11   6    0.53    1.82
  17  11  -6    0.92    2.15
 -18 -12   6    1.75    1.99
  18  12  -6    1.99    2.32
  -7 -15  -6    0.98    2.48
  -6 -14  -6    1.73    2.65
  -5 -13  -6    2.79    2.48
  -4 -12  -6   39.20    3.31
  -3 -11  -6    8.02    1.99
  -2 -10  -6   53.36    3.14
  -1  -9  -6    5.48    1.49
   0  -8  -6    6.75    1.32
  -1   7   6   18.27    3.14
   1  -7  -6   21.30    3.31
  -2   6   6  148.31    6.62
   2  -6  -6  146.47    5.96
   2  -6  -6  148.95    6.79
  -3   5   6   28.57    2.48
   3  -5  -6   29.71    2.65
   3  -5  -6   28.37    2.15
  -4   4   6  209.49    6.62
   4  -4  -6  211.68    6.79
   4  -4  -6  211.68    6.29
  -5   3   6  216.32   17.55
   5  -3  -6  215.92   16.88
   5  -3  -6  214.83   17.88
  -6   2   6   66.00    6.46
   6  -2  -6   63.72    6.62
   6  -2  -6   64.96    6.29
  -7   1   6   38.09    4.80
   7  -1  -6   38.79    4.97
   7  -1  -6   38.19    4.80
  -8   0   6   19.13    3.81
   8   0  -6   19.92    3.97
   8   0  -6   18.28    3.81
  -9  -1   6   16.94    0.99
   9   1  -6   17.39    1.32
 -10  -2   6   42.20    4.80
  10   2  -6   43.30    4.97
 -11  -3   6   21.37    0.99
  11   3  -6   21.41    0.66
  11   3  -6   21.02    0.99
 -12  -4   6    3.95    1.49
 -13  -5   6   52.06    3.64
  13   5  -6   50.72    3.97
 -14  -6   6  117.84    6.79
  14   6  -6  116.10    6.95
 -15  -7   6    4.41    1.49
  15   7  -6    4.21    1.82
 -16  -8   6   18.03    1.99
  16   8  -6   18.33    2.32
 -17  -9   6    0.31    1.66
  17   9  -6    1.10    1.99
 -18 -10   6   10.11    1.99
  18  10  -6   10.51    2.48
 -19 -11   6    3.12    2.15
  19  11  -6    3.37    2.32
 -20 -12   6    2.79    2.15
  20  12  -6    2.79    2.32
  -5 -15  -6    3.96    2.65
  -4 -14  -6   33.87    3.14
  -3 -13  -6    0.41    2.32
  -2 -12  -6   13.48    2.15
  -1 -11  -6    2.81    1.82
   0 -10  -6   15.62    2.65
  -1   9   6   -0.17    1.49
   1  -9  -6    0.38    1.49
  -2   8   6   12.10    1.82
   2  -8  -6   13.59    1.99
  -3   7   6   79.27    5.96
   3  -7  -6   78.28    5.96
  -4   6   6   71.72    3.64
   4  -6  -6   71.62    3.64
   4  -6  -6   71.92    3.14
  -5   5   6   49.73    5.30
   5  -5  -6   48.98    5.46
   5  -5  -6   47.74    4.97
  -6   4   6    2.20    1.32
   6  -4  -6    2.40    1.16
   6  -4  -6    1.95    1.32
  -7   3   6  194.92   17.05
   7  -3  -6  200.43   17.21
   7  -3  -6  198.15   16.39
  -8   2   6  226.99   18.04
   8  -2  -6  223.51   18.21
   8  -2  -6  224.95   17.38
  -9   1   6   17.24    1.16
   9  -1  -6   18.13    1.32
 -10   0   6   12.87    0.83
  10   0  -6   12.42    0.99
  10   0  -6   12.57    0.66
 -11  -1   6    1.64    0.99
  11   1  -6    1.79    0.83
  11   1  -6    2.44    1.32
  12   2  -6    3.33    1.16
  12   2  -6    4.97    1.99
  13   3  -6   24.12    1.99
 -14  -4   6  208.29   10.43
  14   4  -6  203.23   10.43
 -15  -5   6    9.87    1.82
  15   5  -6    9.92    2.15
 -16  -6   6  114.95    5.13
  16   6  -6  112.76    5.30
 -17  -7   6    2.95    1.49
  17   7  -6    2.95    1.82
 -18  -8   6    2.04    1.66
  18   8  -6    2.64    1.99
 -19  -9   6    2.44    1.99
  19   9  -6    2.30    2.32
 -20 -10   6    0.29    1.82
  20  10  -6   -0.30    2.15
 -21 -11   6    1.36    2.15
  21  11  -6    0.96    2.32
  -3 -15  -6    1.46    2.65
  -2 -14  -6    8.52    2.65
  -1 -13  -6    1.07    2.15
   0 -12  -6    3.69    2.32
   1 -11  -6    2.09    1.99
  -2  10   6   31.74    2.48
   2 -10  -6   31.35    2.48
  -3   9   6   14.45    1.82
   3  -9  -6   14.55    1.99
  -4   8   6   45.75    1.99
   4  -8  -6   45.10    1.99
  -5   7   6   97.80    8.28
   5  -7  -6   97.35    8.28
   5  -7  -6   98.94    7.61
  -6   6   6    2.32    1.66
   6  -6  -6    2.42    1.32
   6  -6  -6    2.67    1.66
  -7   5   6   33.83    4.97
   7  -5  -6   36.31    4.80
   7  -5  -6   34.47    5.13
  -8   4   6   44.61    6.12
   8  -4  -6   45.50    5.96
   8  -4  -6   43.02    6.29
  -9   3   6  125.57    7.78
   9  -3  -6  129.24    7.45
   9  -3  -6  125.87    7.78
 -10   2   6   43.10    4.97
  10  -2  -6   42.75    4.97
  10  -2  -6   42.95    4.97
 -11   1   6    1.35    0.99
  11  -1  -6    1.55    1.32
  11  -1  -6    1.94    0.99
 -12   0   6   56.48    1.82
  12   0  -6   57.67    1.66
  12   0  -6   56.98    1.99
 -13  -1   6   25.94    3.14
  13   1  -6   26.24    3.31
 -14  -2   6  269.47   13.90
  14   2  -6  270.07   13.74
  15   3  -6   16.79    2.15
 -16  -4   6   83.23    6.29
  16   4  -6   82.19    6.29
 -17  -5   6    1.88    1.66
  17   5  -6    2.13    1.99
 -18  -6   6   30.00    2.48
  18   6  -6   30.45    2.98
 -19  -7   6    5.26    2.32
  19   7  -6    5.45    2.65
 -20  -8   6    3.64    1.82
  20   8  -6    2.84    1.82
 -21  -9   6    0.56    1.99
  21   9  -6    0.17    2.15
 -22 -10   6    2.51    2.15
  22  10  -6    2.76    2.32
  -1 -15  -6    2.15    2.48
   0 -14  -6    1.84    2.48
   1 -13  -6    0.46    2.15
   2 -12  -6   20.97    2.65
  -3  11   6   22.17    2.48
   3 -11  -6   23.56    2.65
  -4  10   6   25.96    2.15
   4 -10  -6   26.81    2.32
  -5   9   6   23.56    3.14
   5  -9  -6   22.87    3.14
  -6   8   6   12.66    2.81
   6  -8  -6   11.22    2.65
  -7   7   6   45.69    5.46
   7  -7  -6   46.28    4.97
   7  -7  -6   47.27    5.63
  -8   6   6   30.41    3.81
   8  -6  -6   31.65    3.81
   8  -6  -6   32.44    3.48
  -9   5   6   27.48    2.81
   9  -5  -6   28.67    2.98
   9  -5  -6   30.01    2.65
 -10   4   6   14.57    2.98
  10  -4  -6   14.82    2.81
  10  -4  -6   14.27    2.98
 -11   3   6   21.17    1.16
  11  -3  -6   21.17    1.16
  11  -3  -6   21.37    1.16
 -12   2   6    4.87    1.99
  12  -2  -6    5.11    2.15
  12  -2  -6    5.61    1.99
 -13   1   6   24.30    2.98
  13  -1  -6   25.34    2.81
  13  -1  -6   26.98    3.14
 -14   0   6   99.17    4.47
  14   0  -6   99.66    4.30
  14   0  -6  102.00    4.63
 -15  -1   6   26.51    3.14
  15   1  -6   26.41    3.31
 -16  -2   6  223.22   10.43
  16   2  -6  222.13   10.43
 -17  -3   6    6.03    1.32
  17   3  -6    5.63    1.49
 -18  -4   6   19.94    1.99
  18   4  -6   20.39    2.48
 -19  -5   6   19.49    3.48
  19   5  -6   20.88    3.97
 -20  -6   6    0.17    1.66
  20   6  -6    0.42    1.82
 -21  -7   6    1.24    1.82
  21   7  -6    0.99    2.15
 -22  -8   6    4.18    1.99
  22   8  -6    3.98    2.15
 -23  -9   6   15.79    2.48
  23   9  -6   14.25    2.65
  24  10  -6   -0.20    2.32
   1 -15  -6    0.39    2.48
   2 -14  -6    9.57    2.48
   3 -13  -6   12.71    2.48
  -4  12   6   36.95    2.81
   4 -12  -6   35.51    2.65
  -5  11   6   26.81    3.48
   5 -11  -6   25.22    3.48
  -6  10   6    1.91    1.99
   6 -10  -6    1.86    1.99
  -7   9   6   13.43    2.65
   7  -9  -6   14.13    2.65
  -8   8   6   68.67    6.29
   8  -8  -6   69.46    5.79
   8  -8  -6   69.71    6.46
  -9   7   6   17.12    2.15
   9  -7  -6   19.35    2.32
   9  -7  -6   18.61    1.82
 -10   6   6    2.15    1.32
  10  -6  -6    2.29    1.32
  10  -6  -6    2.24    1.16
 -11   5   6    7.34    1.32
  11  -5  -6    7.39    1.16
  11  -5  -6    7.89    1.16
 -12   4   6    3.75    1.99
  12  -4  -6    4.30    1.82
  12  -4  -6    3.55    1.66
 -13   3   6   28.88    3.48
  13  -3  -6   32.51    3.64
  13  -3  -6   32.96    3.48
 -14   2   6  269.97   14.73
  14  -2  -6  274.44   14.73
  14  -2  -6  273.79   14.23
 -15   1   6   27.30    3.48
  15  -1  -6   28.69    3.31
  15  -1  -6   28.40    3.64
 -16   0   6   36.55    3.14
  16   0  -6   35.51    3.31
 -17  -1   6    3.60    1.49
  17   1  -6    3.80    1.66
 -18  -2   6   67.93    3.97
  18   2  -6   67.38    4.14
 -19  -3   6    8.28    2.81
  19   3  -6    6.64    2.98
 -20  -4   6    4.57    1.49
  20   4  -6    4.97    1.82
 -21  -5   6    9.34    2.15
  21   5  -6    8.74    2.32
 -22  -6   6   -0.01    1.82
  22   6  -6    0.34    1.99
 -23  -7   6   19.24    2.48
  23   7  -6   18.50    2.81
 -24  -8   6    2.78    2.15
  24   8  -6    3.27    2.48
 -25  -9   6   15.20    2.81
  25   9  -6   13.81    2.98
   2 -16  -6    1.92    2.81
   3 -15  -6    0.81    2.32
   4 -14  -6   13.47    2.65
  -5  13   6   16.05    2.81
   5 -13  -6   15.56    2.81
  -6  12   6    0.89    1.99
   6 -12  -6    0.35    1.99
  -7  11   6   10.02    2.98
   7 -11  -6   10.71    2.98
  -8  10   6   20.61    2.98
   8 -10  -6   20.31    2.98
  -9   9   6    4.93    1.66
   9  -9  -6    5.67    1.82
 -10   8   6   29.64    3.14
  10  -8  -6   28.99    2.65
  10  -8  -6   28.35    2.98
 -11   7   6    4.88    1.49
  11  -7  -6    5.48    1.49
  11  -7  -6    5.38    1.16
 -12   6   6   16.26    1.49
  12  -6  -6   16.51    1.16
  12  -6  -6   16.51    1.32
 -13   5   6   47.94    3.81
  13  -5  -6   52.06    3.64
  13  -5  -6   50.97    3.97
 -14   4   6  203.42   10.43
  14  -4  -6  205.61   10.10
  14  -4  -6  205.86   10.59
 -15   3   6   23.24    3.81
  15  -3  -6   26.77    3.81
  15  -3  -6   22.85    3.81
 -16   2   6  219.55   10.43
  16  -2  -6  226.15   10.43
  16  -2  -6  221.04   10.26
 -17   1   6    3.80    1.49
  17  -1  -6    3.35    1.66
 -18   0   6    1.58    1.32
  18   0  -6    1.83    1.49
 -19  -1   6   12.15    3.14
  19   1  -6   12.05    3.31
 -20  -2   6    8.86    1.49
  20   2  -6    8.81    1.66
 -21  -3   6    3.52    1.99
  21   3  -6    2.93    2.15
 -22  -4   6    4.47    1.99
  22   4  -6    4.32    2.15
 -23  -5   6   42.47    3.64
  23   5  -6   39.25    3.64
 -24  -6   6   -0.02    1.99
  24   6  -6    0.87    2.15
 -25  -7   6   20.98    3.14
  25   7  -6   20.93    3.48
 -26  -8   6   11.89    2.81
  26   8  -6   11.49    3.14
   4 -16  -6    5.16    2.65
   5 -15  -6    3.15    2.48
  -6  14   6    0.51    2.15
   6 -14  -6    0.71    2.32
  -7  13   6   12.43    2.65
   7 -13  -6   12.23    2.81
  -8  12   6    7.76    2.32
   8 -12  -6    6.97    2.32
  -9  11   6    3.48    1.99
   9 -11  -6    4.62    2.32
 -10  10   6    1.06    1.99
  10 -10  -6    1.01    1.99
 -11   9   6    0.09    1.66
  11  -9  -6    1.23    1.82
  11  -9  -6    0.58    1.32
 -12   8   6    1.45    1.82
  12  -8  -6    1.55    1.49
  12  -8  -6    2.44    1.82
 -13   7   6   21.07    3.14
  13  -7  -6   22.96    2.98
  13  -7  -6   22.61    3.31
 -14   6   6  116.55    7.12
  14  -6  -6  117.94    6.79
  14  -6  -6  117.35    7.28
 -15   5   6   11.36    2.32
  15  -5  -6    9.62    2.15
 -16   4   6   83.73    6.62
  16  -4  -6   82.98    6.46
  16  -4  -6   85.31    6.62
 -17   3   6    5.18    1.32
  17  -3  -6    5.48    1.49
  17  -3  -6    6.13    1.32
 -18   2   6   66.78    3.81
  18  -2  -6   66.83    3.97
 -19   1   6   10.36    2.81
  19  -1  -6   11.80    3.14
 -20   0   6   48.42    2.98
  20   0  -6   48.67    3.14
 -21  -1   6    2.56    1.82
  21   1  -6    2.46    1.82
 -22  -2   6   15.50    2.32
  22   2  -6   15.25    2.48
 -23  -3   6   56.27    4.47
  23   3  -6   54.23    4.63
 -24  -4   6    1.03    1.99
  24   4  -6    1.08    1.99
 -25  -5   6   32.41    3.97
  25   5  -6   30.27    4.30
 -26  -6   6   25.76    3.48
  26   6  -6   25.26    3.81
 -27  -7   6    1.05    2.32
  27   7  -6    1.85    2.48
  -7  15   6    2.03    2.32
   7 -15  -6    2.57    2.65
  -8  14   6    8.78    2.32
   8 -14  -6    9.82    2.48
  -9  13   6    7.48    2.32
   9 -13  -6    7.87    2.32
 -10  12   6    0.70    1.99
  10 -12  -6    0.90    1.99
 -11  11   6    4.93    1.99
  11 -11  -6    5.13    1.99
 -12  10   6    3.91    1.99
  12 -10  -6    4.31    1.99
 -13   9   6    5.86    1.99
  13  -9  -6    5.91    1.49
  13  -9  -6    6.90    2.15
 -14   8   6   87.08    4.14
  14  -8  -6   88.02    4.47
  14  -8  -6   88.22    3.97
 -15   7   6    5.11    1.99
  15  -7  -6    5.80    1.82
  15  -7  -6    6.10    2.15
 -16   6   6  114.35    5.79
  16  -6  -6  117.33    5.96
  16  -6  -6  116.44    5.63
 -17   5   6    1.04    1.66
  17  -5  -6    2.73    1.82
  17  -5  -6    2.38    1.82
 -18   4   6   19.39    2.15
  18  -4  -6   21.08    2.15
  18  -4  -6   20.04    2.32
 -19   3   6    7.88    2.98
  19  -3  -6    7.79    2.98
 -20   2   6    9.06    1.49
  20  -2  -6    8.86    1.66
 -21   1   6    3.11    1.82
  21  -1  -6    2.91    1.99
 -22   0   6    3.17    1.49
  22   0  -6    3.27    1.66
 -23  -1   6   38.23    3.14
  23   1  -6   37.29    3.31
 -24  -2   6    1.74    1.99
  24   2  -6    1.89    2.15
 -25  -3   6   59.60    5.30
  25   3  -6   60.10    5.46
 -26  -4   6   26.12    3.64
  26   4  -6   25.47    3.81
 -27  -5   6    1.45    2.32
  27   5  -6    1.40    2.48
  -9  15   6   -0.16    2.15
   9 -15  -6    0.69    2.48
 -10  14   6    1.80    2.32
  10 -14  -6    1.56    2.32
 -11  13   6    1.32    2.15
  11 -13  -6    1.17    2.32
 -12  12   6    0.87    1.99
  12 -12  -6    0.87    2.15
 -13  11   6   16.41    2.65
  13 -11  -6   17.25    2.81
 -14  10   6   48.19    3.97
  14 -10  -6   48.19    3.48
  14 -10  -6   48.29    4.14
 -15   9   6   15.72    2.81
  15  -9  -6   15.87    2.48
  15  -9  -6   15.47    2.81
 -16   8   6   17.88    2.32
  16  -8  -6   19.82    2.65
  16  -8  -6   19.77    2.32
 -17   7   6    2.26    1.82
  17  -7  -6    2.61    1.66
  17  -7  -6    3.30    1.82
 -18   6   6   30.40    2.81
  18  -6  -6   29.90    2.81
  18  -6  -6   30.40    2.81
 -19   5   6   18.00    3.48
  19  -5  -6   20.48    3.64
  19  -5  -6   19.49    3.48
 -20   4   6    4.47    1.49
  20  -4  -6    4.92    1.66
 -21   3   6    2.73    1.99
  21  -3  -6    2.63    2.15
 -22   2   6   15.05    2.32
  22  -2  -6   15.75    2.48
 -23   1   6   36.15    2.81
  23  -1  -6   36.79    3.14
 -24   0   6    1.22    1.82
  24   0  -6    0.63    1.82
 -25  -1   6   35.18    3.97
  25   1  -6   35.98    4.30
 -26  -2   6   29.30    3.81
  26   2  -6   28.21    3.97
 -27  -3   6    0.34    2.15
  27   3  -6    0.04    2.15
 -28  -4   6    6.95    2.48
  28   4  -6    7.84    2.81
 -11  15   6   -0.13    2.32
  11 -15  -6   -0.43    2.48
 -12  14   6   -0.55    2.32
  12 -14  -6   -0.10    2.32
 -13  13   6    7.86    2.32
  13 -13  -6    9.00    2.65
 -14  12   6   36.54    3.14
  14 -12  -6   35.65    3.14
 -15  11   6    0.83    2.15
  15 -11  -6    0.83    2.32
 -16  10   6   35.86    2.81
  16 -10  -6   37.59    3.14
  16 -10  -6   36.50    2.48
 -17   9   6    0.76    1.99
  17  -9  -6    1.35    2.15
  17  -9  -6    0.01    1.66
 -18   8   6    1.65    1.82
  18  -8  -6    2.39    1.66
  18  -8  -6    2.34    2.15
 -19   7   6    5.65    2.65
  19  -7  -6    5.65    2.65
  19  -7  -6    5.31    2.32
 -20   6   6   -0.08    1.82
  20  -6  -6    0.07    1.66
  20  -6  -6   -0.33    1.66
 -21   5   6    9.39    2.15
  21  -5  -6    8.60    2.15
 -22   4   6    3.27    1.82
  22  -4  -6    3.97    1.99
 -23   3   6   53.78    4.30
  23  -3  -6   55.47    4.47
 -24   2   6    1.54    1.82
  24  -2  -6    2.09    2.15
 -25   1   6   34.54    3.81
  25  -1  -6   35.38    4.14
 -26   0   6   29.20    3.97
  26   0  -6   28.36    4.14
 -27  -1   6    1.68    1.99
  27   1  -6    2.22    2.15
 -28  -2   6    6.39    2.48
  28   2  -6    6.59    2.48
 -29  -3   6    0.12    2.32
  29   3  -6    0.37    2.48
 -14  14   6   19.23    2.81
  14 -14  -6   19.73    3.14
 -15  13   6    3.02    2.48
  15 -13  -6    2.72    2.48
 -16  12   6   12.93    2.65
  16 -12  -6   13.08    2.81
 -17  11   6    0.92    2.15
  17 -11  -6    0.73    1.82
  17 -11  -6    1.32    2.48
 -18  10   6   10.01    2.32
  18 -10  -6   10.86    2.81
  18 -10  -6    9.91    2.15
 -19   9   6    2.00    2.15
  19  -9  -6    2.89    2.65
  19  -9  -6    1.95    1.99
 -20   8   6    2.99    1.82
  20  -8  -6    3.89    2.15
  20  -8  -6    2.89    1.66
 -21   7   6    0.39    1.99
  21  -7  -6    1.19    1.82
 -22   6   6    0.39    1.82
  22  -6  -6    0.09    1.82
 -23   5   6   38.50    2.98
  23  -5  -6   38.65    3.14
 -24   4   6    0.54    1.99
  24  -4  -6    0.54    1.99
 -25   3   6   58.41    5.30
  25  -3  -6   60.30    5.30
 -26   2   6   30.64    4.14
  26  -2  -6   29.45    4.14
 -27   1   6    2.47    1.99
  27  -1  -6    1.68    1.99
 -28   0   6    3.33    2.48
  28   0  -6    4.43    2.65
 -29  -1   6    0.45    2.32
  29   1  -6   -0.39    2.32
 -16  14   6   12.80    2.65
  16 -14  -6   13.19    2.98
 -17  13   6    0.51    2.32
  17 -13  -6    0.36    2.65
 -18  12   6    1.84    2.32
  18 -12  -6    2.79    2.81
 -19  11   6    4.26    2.48
  19 -11  -6    4.51    2.65
  19 -11  -6    3.91    2.15
 -20  10   6   -0.05    1.99
  20 -10  -6   -0.25    2.32
  20 -10  -6    0.15    1.82
 -21   9   6    0.27    1.99
  21  -9  -6    1.31    1.99
  21  -9  -6    0.17    2.32
 -22   8   6    3.83    1.99
  22  -8  -6    4.08    1.82
 -23   7   6   18.65    2.65
  23  -7  -6   19.79    2.65
 -24   6   6    0.28    1.99
  24  -6  -6    1.07    1.99
 -25   5   6   29.28    3.81
  25  -5  -6   30.57    3.97
 -26   4   6   26.07    3.81
  26  -4  -6   26.86    3.97
 -27   3   6   -0.05    1.99
  27  -3  -6    0.39    2.15
 -28   2   6    6.68    2.32
  28  -2  -6    6.29    2.48
 -29   1   6    0.45    2.32
  29  -1  -6    0.25    2.32
 -30   0   6   -0.30    2.32
 -20  12   6    2.84    2.32
  20 -12  -6    2.69    2.65
 -21  11   6    1.76    2.32
  21 -11  -6    1.26    1.99
  21 -11  -6    1.71    2.48
 -22  10   6    2.02    2.15
  22 -10  -6    3.36    1.99
  22 -10  -6    2.86    2.48
 -23   9   6   13.81    2.48
  23  -9  -6   15.65    2.48
 -24   8   6    1.49    2.15
  24  -8  -6    2.83    2.15
 -25   7   6   19.09    2.98
  25  -7  -6   20.68    2.98
 -26   6   6   25.21    3.48
  26  -6  -6   25.51    3.48
 -27   5   6    0.41    1.99
  27  -5  -6    1.10    2.15
 -28   4   6    7.00    2.65
  28  -4  -6    8.54    2.81
 -29   3   6   -0.02    2.32
  29  -3  -6    0.77    2.48
 -24  10   6    0.30    2.32
 -25   9   6   14.21    2.98
  25  -9  -6   15.16    2.81
 -26   8   6    9.90    2.81
  26  -8  -6   10.50    2.48
 -27   7   6    1.05    2.32
  27  -7  -6    2.15    2.32
 -28   6   6    3.43    2.32
  21  -5   7    7.61    2.81
 -21   5  -7    5.97    2.65
  20  -6   7   14.04    2.65
 -20   6  -7   12.21    2.65
  19  -7   7    9.39    2.48
 -19   7  -7    9.63    2.32
  18  -8   7    7.74    2.98
 -18   8  -7    7.39    2.81
  17  -9   7    3.28    2.98
 -17   9  -7    2.44    2.65
  16 -10   7    1.32    2.65
 -16  10  -7    0.92    2.32
 -22   2  -7    5.61    2.65
  21  -3   7    5.26    2.48
 -21   3  -7    5.36    2.65
  20  -4   7    7.07    2.48
 -20   4  -7    6.48    2.65
  19  -5   7   14.55    2.32
 -19   5  -7   14.20    2.32
  18  -6   7   16.71    2.81
 -18   6  -7   18.30    2.98
  17  -7   7    7.65    3.31
 -17   7  -7    7.00    3.14
  16  -8   7    2.04    2.65
 -16   8  -7    2.19    2.48
  15  -9   7    4.67    2.81
 -15   9  -7    4.18    2.32
  14 -10   7    2.61    2.48
 -14  10  -7    3.60    2.32
  13 -11   7    2.35    2.65
 -13  11  -7    2.40    2.32
  12 -12   7    2.57    2.65
 -12  12  -7    1.53    2.32
 -22   0  -7    1.25    2.48
 -21   1  -7    8.41    2.81
 -20   2  -7   28.16    2.81
  19  -3   7   18.87    2.32
 -19   3  -7   17.92    2.32
  18  -4   7    9.21    2.65
 -18   4  -7    9.41    2.65
  17  -5   7    4.64    2.81
 -17   5  -7    7.32    3.14
  16  -6   7    1.92    2.32
 -16   6  -7    1.32    2.15
  15  -7   7   17.50    3.14
 -15   7  -7   17.41    2.98
  14  -8   7    7.88    2.48
 -14   8  -7    8.03    2.15
  13  -9   7    1.72    2.48
 -13   9  -7    1.52    2.15
  12 -10   7    1.44    2.32
 -12  10  -7    1.44    1.99
  11 -11   7   -0.46    2.65
 -11  11  -7   -0.16    2.15
  10 -12   7    1.46    2.48
 -10  12  -7    1.26    2.32
   9 -13   7    8.10    2.81
  -9  13  -7    8.35    2.65
 -22  -2  -7    6.56    2.65
 -21  -1  -7    8.26    2.65
 -20   0  -7   12.52    2.81
 -19   1  -7   18.94    2.32
  18  -2   7   30.93    3.14
 -18   2  -7   32.32    3.48
  17  -3   7    4.76    2.81
 -17   3  -7    6.75    2.98
  16  -4   7    1.09    2.32
 -16   4  -7    1.04    1.99
  15  -5   7   10.58    2.65
 -15   5  -7    9.93    2.48
  14  -6   7    3.05    2.15
 -14   6  -7    3.44    1.99
  13  -7   7   10.75    2.65
 -13   7  -7   10.75    2.48
  12  -8   7   13.15    2.32
 -12   8  -7   13.35    1.99
  11  -9   7    0.04    2.32
 -11   9  -7    0.63    2.15
  10 -10   7    0.75    2.15
 -10  10  -7    1.50    1.99
   9 -11   7    7.39    2.65
  -9  11  -7    6.65    2.48
   8 -12   7    2.36    2.48
  -8  12  -7    1.67    2.15
   7 -13   7   35.79    2.65
  -7  13  -7   37.08    2.65
   6 -14   7    1.13    2.65
  -6  14  -7    2.77    2.48
 -21  -3  -7    5.86    2.48
 -20  -2  -7   28.41    2.65
 -19  -1  -7   17.99    2.15
 -18   0  -7   19.21    3.31
 -17   1  -7   13.29    3.81
  16  -2   7    5.42    2.32
 -16   2  -7    5.02    2.32
  15  -3   7    9.32    2.48
 -15   3  -7   10.02    2.48
  14  -4   7    7.41    2.15
 -14   4  -7    7.61    1.99
  13  -5   7    3.33    2.15
 -13   5  -7    3.23    1.82
  12  -6   7    1.11    1.99
 -12   6  -7    1.11    1.66
  11  -7   7    5.54    2.32
 -11   7  -7    6.43    2.15
  10  -8   7    7.06    2.15
 -10   8  -7    6.87    1.82
   9  -9   7   19.20    3.14
  -9   9  -7   20.84    3.14
   8 -10   7    1.33    2.32
  -8  10  -7    0.78    1.99
   7 -11   7   44.64    2.81
  -7  11  -7   45.44    2.65
   6 -12   7    1.58    2.65
  -6  12  -7    1.73    2.32
   5 -13   7    0.22    2.48
  -5  13  -7    0.76    2.32
   4 -14   7    0.94    2.48
  -4  14  -7    2.33    2.32
 -21  -5  -7    7.41    2.65
 -20  -4  -7    7.07    2.32
 -19  -3  -7   18.12    2.15
 -18  -2  -7   32.81    3.48
 -17  -1  -7   12.50    3.64
 -16   0  -7    1.84    1.99
  15  -1   7   28.98    3.48
 -15   1  -7   27.64    3.64
  14  -2   7   15.86    2.15
 -14   2  -7   16.60    2.15
  13  -3   7    4.77    2.15
 -13   3  -7    4.12    1.99
  12  -4   7   21.02    1.99
 -12   4  -7   20.97    1.82
  11  -5   7    0.02    1.82
 -11   5  -7    0.47    1.49
  10  -6   7    1.08    1.82
 -10   6  -7    0.78    1.66
   9  -7   7   38.51    4.14
  -9   7  -7   41.05    3.97
   8  -8   7    7.28    2.48
  -8   8  -7    7.87    2.15
   7  -9   7   85.34    3.48
  -7   9  -7   85.59    3.31
  -6  10  -7    6.67    2.48
  -5  11  -7    1.48    1.99
  -4  12  -7    3.09    2.15
  -3  13  -7    1.02    2.32
  -2  14  -7   10.26    2.48
 -20  -6  -7   13.95    2.65
 -19  -5  -7   14.84    2.15
 -18  -4  -7   10.30    2.81
 -17  -3  -7    6.40    2.98
 -16  -2  -7    6.76    2.48
 -15  -1  -7   29.62    3.81
 -14   0  -7    2.22    1.66
  13  -1   7   20.12    2.65
 -13   1  -7   19.52    2.48
  12  -2   7   18.88    1.82
 -12   2  -7   18.49    1.49
  11  -3   7    2.68    1.82
 -11   3  -7    3.92    1.82
  10  -4   7   24.07    2.15
 -10   4  -7   24.37    1.99
   9  -5   7   20.83    3.64
  -9   5  -7   21.38    3.48
   8  -6   7    3.17    2.32
  -8   6  -7    4.21    2.15
  -7   7  -7  136.13    4.80
  -6   8  -7   19.43    3.81
  -6   8  -7   18.48    3.64
  -5   9  -7   10.03    2.15
  -5   9  -7    9.88    2.48
  -4  10  -7    3.01    1.99
  -4  10  -7    3.11    2.32
  -3  11  -7    0.88    2.15
  -3  11  -7    0.73    1.99
  -2  12  -7   14.80    2.81
  -2  12  -7   15.10    2.65
  -1  13  -7    4.30    2.32
  -1  13  -7    5.05    2.15
   0  14  -7   14.75    2.65
   1  15  -7    0.19    2.65
 -19  -7  -7   10.23    2.15
 -18  -6  -7   18.75    2.81
 -17  -5  -7    5.23    2.48
 -16  -4  -7    0.99    1.99
 -15  -3  -7   11.41    2.65
 -14  -2  -7   17.10    2.15
 -13  -1  -7   22.45    3.14
  12   0   7    3.34    1.49
 -12   0  -7    3.29    1.49
  11  -1   7    6.96    1.99
 -11   1  -7    7.36    1.82
  10  -2   7   20.66    1.99
 -10   2  -7   21.01    1.82
   9  -3   7   65.68    6.29
  -9   3  -7   69.05    6.29
   8  -4   7    0.27    1.66
  -8   4  -7    1.01    1.66
  -7   5  -7  136.40    4.97
  -6   6  -7   14.37    3.31
  -6   6  -7   17.94    3.64
  -5   7  -7    3.95    2.15
  -5   7  -7    2.95    1.82
  -4   8  -7    1.52    1.99
  -4   8  -7    2.07    1.82
  -3   9  -7   10.19    1.66
  -3   9  -7    9.79    1.99
  -2  10  -7   55.82    3.97
  -2  10  -7   54.67    3.97
  -1  11  -7    1.19    1.99
  -1  11  -7    1.94    1.82
   0  12  -7   22.75    2.65
   0  12  -7   23.15    2.32
   1  13  -7    1.07    1.99
   1  13  -7    0.82    2.32
   2  14  -7   18.09    2.98
   3  15  -7    8.96    2.81
 -18  -8  -7    8.29    2.65
 -17  -7  -7    7.40    2.81
 -16  -6  -7    2.06    2.15
 -15  -5  -7   10.18    2.32
 -14  -4  -7    8.05    1.99
 -13  -3  -7    5.02    1.99
 -12  -2  -7   19.48    1.66
 -11  -1  -7    7.91    1.99
  10   0   7    1.06    1.49
 -10   0  -7    1.96    1.49
   9  -1   7   55.50    5.63
  -9   1  -7   58.29    5.79
   8  -2   7    2.25    1.66
  -8   2  -7    2.20    1.49
  -7   3  -7  236.55    9.60
  -6   4  -7   11.96    3.31
  -6   4  -7   12.36    3.48
  -5   5  -7   11.00    2.48
  -5   5  -7   10.90    2.32
  -4   6  -7    7.43    2.48
  -4   6  -7    7.33    2.15
  -3   7  -7    2.67    2.15
  -3   7  -7    1.92    1.66
  -2   8  -7   31.94    3.14
  -2   8  -7   31.89    2.98
  -1   9  -7    2.45    1.99
  -1   9  -7    3.89    1.99
   0  10  -7   73.23    3.64
   0  10  -7   71.44    3.48
   1  11  -7    0.29    2.15
   1  11  -7    1.28    1.99
   2  12  -7   20.96    2.98
   2  12  -7   20.57    2.48
   3  13  -7    2.96    2.65
   4  14  -7    3.22    2.65
   5  15  -7    7.97    2.65
 -17  -9  -7    3.98    2.48
 -17  -9  -7    4.57    2.65
 -16  -8  -7    1.49    2.15
 -16  -8  -7    2.69    2.32
 -15  -7  -7   18.45    2.81
 -14  -6  -7    3.99    1.99
 -13  -5  -7    3.47    1.99
 -12  -4  -7   20.82    1.82
 -11  -3  -7    2.98    1.66
 -10  -2  -7   21.26    1.99
   9   1   7   56.30    5.46
  -9  -1  -7   56.99    5.79
   8   0   7   35.11    4.80
  -8   0  -7   35.50    4.97
  -7   1  -7  208.94    8.94
  -6   2  -7   27.64    4.47
  -6   2  -7   28.73    4.47
  -5   3  -7   10.71    2.48
  -5   3  -7   10.86    2.65
  -4   4  -7    2.63    1.66
  -4   4  -7    2.58    1.49
  -3   5  -7    0.87    1.32
  -3   5  -7    1.87    1.82
  -2   6  -7  153.95    8.28
  -2   6  -7  150.92    8.28
  -1   7  -7    7.84    1.66
  -1   7  -7    7.74    1.49
   0   8  -7   24.25    1.99
   0   8  -7   23.30    2.15
   1   9  -7   10.92    2.48
   1   9  -7   12.26    2.32
   2  10  -7   62.41    3.64
   2  10  -7   62.26    3.64
   3  11  -7   32.35    4.14
   3  11  -7   30.91    3.97
   4  12  -7    6.00    2.15
   5  13  -7    2.65    2.48
   6  14  -7    0.48    2.48
 -16 -10  -7    1.52    2.32
 -16 -10  -7    0.82    2.15
 -15  -9  -7    4.87    2.32
 -15  -9  -7    4.97    2.32
 -14  -8  -7    7.83    1.99
 -14  -8  -7    9.12    2.15
 -13  -7  -7   11.05    2.32
 -13  -7  -7   10.26    2.15
 -12  -6  -7    1.51    1.49
 -12  -6  -7    1.01    1.66
 -11  -5  -7    0.32    1.32
 -11  -5  -7    0.07    1.49
 -10  -4  -7   24.67    1.99
  -9  -3  -7   70.59    6.95
  -8  -2  -7    1.65    1.49
   7   1   7  204.87    8.28
  -7  -1  -7  209.29    8.61
  -6   0  -7   60.04    8.94
  -6   0  -7   60.29    8.61
  -5   1  -7   21.52    3.14
  -5   1  -7   22.01    3.14
  -4   2  -7    7.78    1.99
  -4   2  -7    6.59    2.15
  -3   3  -7    1.21    1.32
  -3   3  -7    1.91    1.66
  -2   4  -7   73.23    4.14
  -2   4  -7   73.68    4.30
  -1   5  -7    6.11    1.32
  -1   5  -7    5.32    1.49
   0   6  -7  229.50   10.92
   0   6  -7  223.59   11.09
   1   7  -7    3.35    1.66
   1   7  -7    3.55    1.32
   2   8  -7   17.66    2.15
   2   8  -7   17.26    2.32
   3   9  -7   52.26    5.96
   3   9  -7   52.66    5.79
   4  10  -7   13.21    2.15
   4  10  -7   12.51    1.82
   5  11  -7   20.35    2.81
   6  12  -7    0.55    2.15
   7  13  -7    0.22    2.32
   8  14  -7    5.80    2.48
 -14 -10  -7    2.71    2.15
 -14 -10  -7    4.20    2.32
 -13  -9  -7    2.17    2.15
 -13  -9  -7    1.62    2.15
 -12  -8  -7   14.24    1.99
 -12  -8  -7   13.95    1.99
 -11  -7  -7    5.69    1.99
 -11  -7  -7    5.89    1.99
 -10  -6  -7    0.63    1.49
 -10  -6  -7    1.53    1.66
  -9  -5  -7   21.23    3.31
  -9  -5  -7   22.17    3.48
  -8  -4  -7    0.52    1.49
  -8  -4  -7    1.41    1.49
  -7  -3  -7  239.08   10.10
  -6  -2  -7   28.14    4.47
  -5  -1  -7   21.82    2.98
  -5  -1  -7   22.56    3.31
  -4   0  -7   17.13    3.48
  -4   0  -7   18.37    3.48
  -3   1  -7    2.69    1.32
  -3   1  -7    2.19    1.16
  -2   2  -7  167.56    8.11
  -2   2  -7  165.53    8.28
  -1   3  -7   15.99    1.49
  -1   3  -7   16.33    1.32
   0   4  -7   73.13    3.81
   0   4  -7   71.74    3.64
   1   5  -7   10.50    2.15
   1   5  -7   10.20    2.48
   2   6  -7  194.55    8.28
   2   6  -7  193.96    8.44
   3   7  -7   38.04    5.13
   3   7  -7   37.79    4.97
   4   8  -7   44.80    2.98
   4   8  -7   43.86    2.98
   5   9  -7   36.04    2.98
   5   9  -7   37.18    3.48
   6  10  -7    0.16    1.82
   7  11  -7    0.74    1.99
   8  12  -7   18.76    2.15
   9  13  -7    3.50    2.32
  10  14  -7    1.61    2.32
 -13 -11  -7    1.91    2.32
 -13 -11  -7    2.21    2.32
 -12 -10  -7    2.09    1.99
 -12 -10  -7    2.63    2.15
 -11  -9  -7    0.39    1.99
 -11  -9  -7    1.13    1.99
 -10  -8  -7    7.96    1.82
 -10  -8  -7    6.91    1.82
  -9  -7  -7   40.25    3.81
  -8  -6  -7    3.82    1.99
  -7  -5  -7  136.40    4.80
  -6  -4  -7   11.76    3.14
  -5  -3  -7   10.31    2.32
  -4  -2  -7    7.58    1.99
  -4  -2  -7    7.33    1.82
  -3  -1  -7    3.08    1.16
  -3  -1  -7    2.29    1.16
  -2   0  -7  213.00   10.59
  -2   0  -7  213.85   11.09
  -1   1  -7    5.00    1.32
  -1   1  -7    5.10    1.16
   0   2  -7  196.90   11.59
   0   2  -7  200.03   11.26
   1   3  -7    7.52    1.32
   1   3  -7    7.32    0.99
   2   4  -7   58.76    3.64
   2   4  -7   61.25    3.81
   3   5  -7  144.61   12.25
   3   5  -7  138.30   12.41
   4   6  -7   12.32    1.32
   4   6  -7   11.77    1.66
   5   7  -7   16.69    1.99
   5   7  -7   17.28    2.32
   6   8  -7    3.99    2.15
   6   8  -7    3.64    1.82
   7   9  -7    6.61    1.82
   8  10  -7    8.27    1.99
   9  11  -7   15.70    2.65
  10  12  -7    1.40    2.32
  11  13  -7    2.79    2.32
  12  14  -7   11.31    2.81
 -12 -12  -7    2.67    2.32
 -12 -12  -7    2.87    2.32
 -11 -11  -7    0.64    2.32
 -11 -11  -7    0.19    2.15
 -10 -10  -7    1.40    1.99
  -9  -9  -7   21.49    3.14
  -8  -8  -7    7.47    2.15
  -7  -7  -7  139.26    5.30
  -6  -6  -7   15.46    3.31
  -5  -5  -7   11.69    2.32
  -4  -4  -7    2.53    1.49
  -3  -3  -7    2.06    1.49
  -3  -3  -7    1.16    1.16
  -2  -2  -7  166.87    8.28
  -2  -2  -7  169.60    8.61
  -1  -1  -7    5.05    1.16
   0   0  -7  190.82   11.42
   0   0  -7  190.42   11.92
   1   1  -7   15.49    2.98
   1   1  -7   14.74    2.98
   2   2  -7  187.65    8.94
   2   2  -7  184.42    9.10
   3   3  -7   57.58    7.78
   3   3  -7   62.44    7.78
   4   4  -7   50.38    2.98
   4   4  -7   49.74    2.65
   5   5  -7  105.51    4.97
   5   5  -7  104.71    4.80
   6   6  -7    5.34    1.16
   6   6  -7    5.29    1.49
   7   7  -7    0.55    1.49
   7   7  -7    1.44    1.32
   8   8  -7   26.22    1.66
   9   9  -7   36.46    3.31
  10  10  -7    6.57    2.32
  11  11  -7   13.04    2.65
  12  12  -7   13.14    2.98
  13  13  -7    3.01    2.48
 -10 -12  -7    0.56    2.15
  -9 -11  -7    7.89    2.48
  -8 -10  -7    1.63    2.15
  -7  -9  -7   87.98    3.64
  -6  -8  -7   18.68    3.48
  -5  -7  -7    2.46    1.82
  -4  -6  -7    7.83    2.32
  -3  -5  -7    0.97    1.49
  -2  -4  -7   74.13    4.30
  -1  -3  -7   16.18    1.16
  -1  -3  -7   16.53    1.32
   0  -2  -7  200.52   11.59
   0  -2  -7  199.98   12.08
  -1   1   7   14.64    2.65
   1  -1  -7   13.75    2.65
   1  -1  -7   14.49    2.65
  -2   0   7   83.18    5.30
   2   0  -7   86.35    5.46
   2   0  -7   85.41    5.46
  -3  -1   7  202.82   17.88
   3   1  -7  199.79   18.21
   3   1  -7  207.44   17.55
   4   2  -7   31.60    2.48
   4   2  -7   30.85    2.32
   5   3  -7   39.00    2.48
   5   3  -7   38.05    2.32
   6   4  -7    2.74    1.49
   6   4  -7    2.39    0.99
   7   5  -7   24.06    2.15
   8   6  -7   39.26    2.15
   9   7  -7   12.14    1.99
  10   8  -7   19.96    3.14
  11   9  -7   23.34    2.48
  12  10  -7   26.28    3.14
  13  11  -7   -0.03    1.99
  14  12  -7    1.46    2.32
  15  13  -7    0.98    2.48
  -9 -13  -7    8.20    2.65
  -8 -12  -7    2.21    2.32
  -7 -11  -7   46.93    2.81
  -6 -10  -7    7.06    2.48
  -5  -9  -7   10.18    2.32
  -4  -8  -7    2.02    1.99
  -3  -7  -7    2.07    1.66
  -2  -6  -7  156.43    9.27
  -1  -5  -7    6.21    1.49
   0  -4  -7   73.38    3.97
   0  -4  -7   73.78    3.64
  -1   3   7    7.42    0.99
   1  -3  -7    7.72    0.99
   1  -3  -7    7.62    1.16
  -2   2   7  187.50    9.60
   2  -2  -7  189.43    9.43
   2  -2  -7  189.73    9.93
  -3   1   7  205.85   18.37
   3  -1  -7  201.93   18.54
   3  -1  -7  205.90   17.88
  -4   0   7  134.95    6.95
   4   0  -7  130.98    7.12
   4   0  -7  133.56    6.95
  -5  -1   7  118.42    4.97
   5   1  -7  121.95    5.13
   5   1  -7  117.48    4.97
  -6  -2   7   17.45    0.83
   6   2  -7   17.35    0.83
   6   2  -7   17.65    1.32
  -7  -3   7    5.56    0.83
   7   3  -7    5.06    0.83
   7   3  -7    5.26    1.16
   8   4  -7   94.20    1.32
   8   4  -7   93.81    1.99
   9   5  -7   75.53    5.63
  10   6  -7    1.18    1.49
  11   7  -7    5.11    1.82
  12   8  -7   79.25    5.46
  13   9  -7    2.51    2.15
  14  10  -7    3.65    2.15
  15  11  -7    1.70    2.15
  16  12  -7    7.23    2.48
  -7 -13  -7   38.17    2.98
  -6 -12  -7    2.03    2.48
  -5 -11  -7    1.63    2.15
  -4 -10  -7    3.45    2.15
  -3  -9  -7   10.24    1.82
  -2  -8  -7   32.23    2.98
  -1  -7  -7    8.44    1.66
   0  -6  -7  231.48   12.25
  -1   5   7   10.15    2.32
   1  -5  -7   11.89    2.65
  -2   4   7   61.05    3.97
   2  -4  -7   61.20    4.14
   2  -4  -7   60.65    3.64
  -3   3   7   61.80    8.44
   3  -3  -7   63.29    8.61
   3  -3  -7   63.09    8.11
  -4   2   7   30.85    2.32
   4  -2  -7   30.36    2.32
   4  -2  -7   30.41    2.32
  -5   1   7  119.72    5.30
   5  -1  -7  120.16    5.30
   5  -1  -7  120.06    5.30
  -6   0   7   20.71    3.14
   6   0  -7   19.96    3.31
   6   0  -7   20.11    3.14
  -7  -1   7    8.69    0.83
   7   1  -7    8.69    1.16
   7   1  -7    8.44    0.83
  -8  -2   7   68.04    1.32
   8   2  -7   67.09    1.32
   8   2  -7   67.64    1.82
  -9  -3   7   75.04    5.46
   9   3  -7   75.44    5.79
   9   3  -7   69.73    5.46
 -10  -4   7   21.79    3.14
  10   4  -7   21.39    3.48
 -11  -5   7   60.09    3.64
  11   5  -7   58.80    3.97
 -12  -6   7   30.69    2.98
  12   6  -7   30.39    3.31
 -13  -7   7   18.63    1.82
  13   7  -7   18.63    2.32
  14   8  -7   14.87    2.81
  15   9  -7    0.59    1.99
  16  10  -7    7.96    2.32
  17  11  -7    0.36    2.32
  18  12  -7    9.64    2.65
  -6 -14  -7    2.13    2.65
  -5 -13  -7    0.32    2.32
  -4 -12  -7    2.20    2.15
  -3 -11  -7    0.88    2.15
  -2 -10  -7   53.93    3.64
  -1  -9  -7    3.94    2.15
   0  -8  -7   24.54    2.15
  -1   7   7    3.25    1.49
   1  -7  -7    3.15    1.49
  -2   6   7  194.01    8.77
   2  -6  -7  197.53    8.94
  -3   5   7  145.50   13.24
   3  -5  -7  143.67   12.58
   3  -5  -7  146.00   13.41
  -4   4   7   53.31    3.31
   4  -4  -7   52.32    3.14
   4  -4  -7   52.22    3.48
  -5   3   7   40.63    2.81
   5  -3  -7   39.89    2.65
   5  -3  -7   40.68    2.98
  -6   2   7   17.25    1.16
   6  -2  -7   17.55    1.16
   6  -2  -7   17.50    1.16
  -7   1   7    9.09    1.16
   7  -1  -7    8.99    1.16
   7  -1  -7    9.19    0.99
  -8   0   7   59.10    0.99
   8   0  -7   59.20    1.16
   8   0  -7   58.90    0.83
  -9  -1   7   43.37    3.97
   9   1  -7   43.71    4.14
   9   1  -7   43.46    3.97
 -10  -2   7   11.80    2.15
  10   2  -7   10.46    1.66
  10   2  -7   12.55    2.48
 -11  -3   7   42.59    2.98
  11   3  -7   41.24    3.31
 -12  -4   7  156.29   10.59
  12   4  -7  151.92   10.59
 -13  -5   7    1.05    1.16
  13   5  -7    0.80    1.49
 -14  -6   7    1.82    1.32
  14   6  -7    2.16    1.82
 -15  -7   7    2.99    1.49
  15   7  -7    2.94    1.82
 -16  -8   7   14.83    1.82
  16   8  -7   14.38    2.15
  17   9  -7    0.48    2.15
  18  10  -7   20.27    2.48
  19  11  -7    1.49    2.48
  -4 -14  -7    0.64    2.32
  -3 -13  -7    0.67    2.32
  -2 -12  -7   13.61    2.48
  -1 -11  -7    1.04    1.82
   0 -10  -7   73.27    3.64
   1  -9  -7   11.37    2.32
  -2   8   7   17.16    2.15
   2  -8  -7   17.85    2.32
  -3   7   7   38.98    5.13
   3  -7  -7   37.44    5.30
  -4   6   7   12.02    1.66
   4  -6  -7   12.62    1.82
  -5   5   7  107.74    5.63
   5  -5  -7  108.63    5.13
   5  -5  -7  107.05    5.63
  -6   4   7    2.54    1.49
   6  -4  -7    3.19    1.32
   6  -4  -7    2.79    1.49
  -7   3   7    6.16    1.32
   7  -3  -7    5.86    1.16
   7  -3  -7    5.91    1.16
  -8   2   7   68.18    1.82
   8  -2  -7   68.83    1.82
   8  -2  -7   69.03    1.82
  -9   1   7   43.32    4.14
   9  -1  -7   44.11    4.14
   9  -1  -7   44.01    4.14
 -10   0   7   33.58    3.64
  10   0  -7   33.68    3.64
  10   0  -7   32.59    3.81
 -11  -1   7   19.70    1.99
  11   1  -7   20.44    2.32
  11   1  -7   19.25    1.66
 -12  -2   7   96.67    6.29
  12   2  -7   98.75    6.29
 -13  -3   7    7.75    1.32
  13   3  -7    8.30    1.82
 -14  -4   7   52.88    4.30
  14   4  -7   51.73    4.47
 -15  -5   7    9.56    1.32
  15   5  -7    9.85    1.66
 -16  -6   7   13.61    1.82
  16   6  -7   13.46    2.15
 -17  -7   7    4.31    1.66
  17   7  -7    4.71    2.15
 -18  -8   7    9.12    1.82
  18   8  -7    8.92    2.15
 -19  -9   7    1.04    1.82
  19   9  -7    0.64    2.15
  20  10  -7   12.35    2.48
  -2 -14  -7   11.06    2.65
  -1 -13  -7    4.00    2.15
   0 -12  -7   22.85    2.48
   1 -11  -7    0.14    1.82
   2 -10  -7   60.37    3.14
  -3   9   7   50.87    5.63
   3  -9  -7   51.86    5.79
  -4   8   7   44.65    2.98
   4  -8  -7   43.96    2.98
  -5   7   7   16.19    2.15
   5  -7  -7   16.29    2.15
  -6   6   7    4.89    1.49
   6  -6  -7    5.04    1.49
   6  -6  -7    5.09    1.16
  -7   5   7   21.38    1.99
   7  -5  -7   21.73    1.99
   7  -5  -7   21.58    1.66
  -8   4   7   95.45    2.15
   8  -4  -7   95.40    1.99
   8  -4  -7   95.69    1.99
  -9   3   7   75.69    6.29
   9  -3  -7   76.18    6.46
   9  -3  -7   75.69    6.12
 -10   2   7   13.00    2.48
  10  -2  -7   12.90    2.48
  10  -2  -7   12.40    2.48
 -11   1   7   17.91    1.82
  11  -1  -7   19.75    1.82
  11  -1  -7   18.75    2.15
 -12   0   7  146.85    9.27
  12   0  -7  145.85    9.10
  12   0  -7  149.23    9.27
 -13  -1   7   12.89    2.15
  13   1  -7   14.43    2.65
 -14  -2   7   13.22    1.82
  14   2  -7   12.37    2.15
 -15  -3   7    0.58    1.32
  15   3  -7    0.72    1.66
 -16  -4   7   77.38    4.30
  16   4  -7   76.14    4.47
 -17  -5   7    1.84    1.32
  17   5  -7    2.29    1.66
 -18  -6   7   42.58    2.32
  18   6  -7   42.88    2.81
 -19  -7   7    8.10    1.99
  19   7  -7    8.20    2.32
 -20  -8   7    1.03    1.82
  20   8  -7    0.04    2.15
 -21  -9   7    4.91    2.15
  21   9  -7    3.77    2.48
 -22 -10   7    0.66    1.99
  22  10  -7    0.37    2.32
   0 -14  -7   14.89    2.65
   1 -13  -7    0.32    2.15
   2 -12  -7   20.86    2.65
  -3  11   7   31.85    3.97
   3 -11  -7   31.15    3.97
  -4  10   7   11.91    1.99
   4 -10  -7   12.51    2.15
  -5   9   7   37.92    3.48
   5  -9  -7   36.08    3.31
  -6   8   7    3.29    2.15
   6  -8  -7    3.89    2.15
  -7   7   7    0.60    1.66
   7  -7  -7    1.44    1.66
  -8   6   7   37.63    1.99
   8  -6  -7   39.12    1.66
   8  -6  -7   39.46    1.99
  -9   5   7   75.23    6.12
   9  -5  -7   78.11    5.79
   9  -5  -7   78.26    6.12
 -10   4   7   20.60    3.48
  10  -4  -7   22.13    3.48
  10  -4  -7   22.63    3.31
 -11   3   7   40.75    3.14
  11  -3  -7   42.44    3.14
  11  -3  -7   42.19    3.14
 -12   2   7   98.16    6.46
  12  -2  -7   97.51    6.29
  12  -2  -7   97.51    6.29
 -13   1   7   13.24    2.15
  13  -1  -7   13.04    1.99
  13  -1  -7   12.99    2.32
 -14   0   7   34.60    2.98
  14   0  -7   36.04    3.31
 -15  -1   7    1.13    1.32
  15   1  -7    1.08    1.66
 -16  -2   7   13.42    1.99
  16   2  -7   12.43    2.15
 -17  -3   7    1.74    1.49
  17   3  -7    1.69    1.66
 -18  -4   7   52.66    3.31
  18   4  -7   52.91    3.48
 -19  -5   7    6.06    1.99
  19   5  -7    5.57    2.32
 -20  -6   7   23.12    2.15
  20   6  -7   22.72    2.48
 -21  -7   7   17.01    2.81
  21   7  -7   15.97    3.14
 -22  -8   7    2.18    1.99
  22   8  -7    1.73    2.32
 -23  -9   7    3.05    2.32
  23   9  -7    3.24    2.81
   1 -15  -7    0.74    2.65
   2 -14  -7   15.61    2.48
   3 -13  -7    2.61    2.48
  -4  12   7    6.65    2.15
   4 -12  -7    5.95    1.99
  -5  11   7   19.20    2.48
   5 -11  -7   20.30    2.65
  -6  10   7    0.85    1.99
   6 -10  -7    0.76    1.99
  -7   9   7    7.06    1.82
   7  -9  -7    6.66    1.82
  -8   8   7   26.67    1.66
   8  -8  -7   26.32    1.66
  -9   7   7   12.74    2.15
   9  -7  -7   12.54    2.15
   9  -7  -7   12.79    1.82
 -10   6   7    1.08    1.66
  10  -6  -7    1.52    1.49
  10  -6  -7    1.23    1.32
 -11   5   7   59.39    4.14
  11  -5  -7   60.69    4.30
  11  -5  -7   62.32    4.14
 -12   4   7  152.12   10.76
  12  -4  -7  154.35   10.76
  12  -4  -7  154.10   10.43
 -13   3   7    8.35    1.82
  13  -3  -7    8.60    1.82
  13  -3  -7    8.25    1.49
 -14   2   7   12.08    1.82
  14  -2  -7   12.13    1.99
  14  -2  -7   13.02    1.82
 -15   1   7    1.53    1.49
  15  -1  -7    1.18    1.49
 -16   0   7   67.03    3.14
  16   0  -7   67.38    3.31
 -17  -1   7    0.73    1.49
  17   1  -7    1.37    1.82
 -18  -2   7   28.61    2.32
  18   2  -7   28.61    2.65
 -19  -3   7    5.77    1.82
  19   3  -7    6.46    1.99
 -20  -4   7   16.70    2.48
  20   4  -7   15.90    2.65
 -21  -5   7   32.46    3.81
  21   5  -7   31.22    4.14
 -22  -6   7    1.54    1.99
  22   6  -7    0.00    1.99
 -23  -7   7   13.26    2.65
  23   7  -7   13.02    3.14
 -24  -8   7   15.21    2.81
  24   8  -7   14.36    2.98
   3 -15  -7   10.05    2.98
   4 -14  -7    2.72    2.32
  -5  13   7    1.26    2.15
   5 -13  -7    2.11    2.15
  -6  12   7   -0.44    1.99
   6 -12  -7    0.21    1.99
  -7  11   7    1.14    1.99
   7 -11  -7    1.58    1.99
  -8  10   7    7.52    1.82
   8 -10  -7    7.77    1.66
  -9   9   7   35.66    3.14
   9  -9  -7   35.71    3.14
 -10   8   7   20.51    3.14
  10  -8  -7   20.21    2.81
  10  -8  -7   19.76    2.98
 -11   7   7    4.77    1.82
  11  -7  -7    5.56    1.49
  11  -7  -7    4.96    1.66
 -12   6   7   30.54    3.31
  12  -6  -7   31.63    3.31
  12  -6  -7   31.33    3.48
 -13   5   7    0.85    1.49
  13  -5  -7    0.85    1.32
  13  -5  -7    0.95    1.49
 -14   4   7   51.34    4.47
  14  -4  -7   52.38    4.63
  14  -4  -7   53.62    4.47
 -15   3   7    1.47    1.49
  15  -3  -7    0.77    1.32
  15  -3  -7    1.12    1.49
 -16   2   7   12.63    1.99
  16  -2  -7   12.48    2.15
 -17   1   7    1.17    1.49
  17  -1  -7    1.87    1.82
 -18   0   7   46.92    2.48
  18   0  -7   46.72    2.81
 -19  -1   7   12.71    2.32
  19   1  -7   13.11    2.65
 -20  -2   7   16.57    2.15
  20   2  -7   16.37    2.32
 -21  -3   7   21.66    3.48
  21   3  -7   20.72    3.64
 -22  -4   7    0.28    1.82
  22   4  -7   -0.07    1.99
 -23  -5   7   21.43    3.31
  23   5  -7   20.24    3.81
 -24  -6   7   16.10    2.98
  24   6  -7   15.06    3.14
 -25  -7   7    1.03    2.32
  25   7  -7    0.34    2.48
   5 -15  -7    8.42    2.48
  -6  14   7    1.47    2.48
   6 -14  -7    0.68    2.15
  -7  13   7    0.41    2.32
   7 -13  -7   -0.23    1.99
  -8  12   7   17.72    2.15
   8 -12  -7   18.51    2.15
  -9  11   7   14.65    2.65
   9 -11  -7   15.70    2.65
 -10  10   7    5.63    2.15
  10 -10  -7    5.23    1.99
 -11   9   7   21.85    2.32
  11  -9  -7   23.29    2.48
 -12   8   7   79.15    5.79
  12  -8  -7   80.94    5.96
  12  -8  -7   81.68    5.46
 -13   7   7   19.22    2.48
  13  -7  -7   19.62    2.15
  13  -7  -7   18.48    2.32
 -14   6   7    1.32    1.66
  14  -6  -7    1.72    1.49
  14  -6  -7    1.52    1.49
 -15   5   7   10.30    1.82
  15  -5  -7   10.60    1.66
  15  -5  -7   10.10    1.66
 -16   4   7   74.65    4.30
  16  -4  -7   78.37    4.30
  16  -4  -7   76.34    4.30
 -17   3   7    1.69    1.49
  17  -3  -7    1.64    1.66
 -18   2   7   27.96    2.48
  18  -2  -7   28.66    2.65
 -19   1   7   12.61    2.32
  19  -1  -7   11.87    2.48
 -20   0   7    7.20    1.66
  20   0  -7    6.66    1.82
 -21  -1   7   37.60    3.81
  21   1  -7   36.16    3.97
 -22  -2   7    1.40    1.66
  22   2  -7    1.60    1.82
 -23  -3   7   20.13    3.31
  23   3  -7   17.94    3.48
 -24  -4   7   19.06    3.14
  24   4  -7   17.82    3.31
 -25  -5   7    1.50    2.15
  25   5  -7    1.20    2.32
 -26  -6   7    1.33    2.32
  26   6  -7    0.99    2.48
  -7  15   7    2.21    2.48
  -8  14   7    8.53    2.81
   8 -14  -7    5.30    2.32
  -9  13   7    3.50    2.32
   9 -13  -7    3.90    2.32
 -10  12   7   -0.04    2.15
  10 -12  -7    0.61    2.15
 -11  11   7   11.75    2.48
  11 -11  -7   12.80    2.65
 -12  10   7   27.97    3.64
  12 -10  -7   29.16    3.81
 -13   9   7    2.27    1.99
  13  -9  -7    1.97    1.99
 -14   8   7   14.08    2.65
  14  -8  -7   14.82    2.81
  14  -8  -7   15.07    2.48
 -15   7   7    3.69    1.99
  15  -7  -7    3.74    1.82
  15  -7  -7    3.34    1.99
 -16   6   7   13.07    2.15
  16  -6  -7   13.66    1.99
  16  -6  -7   13.46    1.99
 -17   5   7    1.50    1.66
  17  -5  -7    1.74    1.66
  17  -5  -7    1.64    1.49
 -18   4   7   53.40    3.48
  18  -4  -7   53.25    3.64
 -19   3   7    6.11    1.82
  19  -3  -7    5.81    1.99
 -20   2   7   15.47    1.99
  20  -2  -7   16.47    2.32
 -21   1   7   37.65    4.14
  21  -1  -7   38.90    4.30
 -22   0   7    5.89    1.99
  22   0  -7    4.80    2.15
 -23  -1   7   22.59    3.48
  23   1  -7   21.35    3.64
 -24  -2   7   15.79    3.31
  24   2  -7   14.65    3.48
 -25  -3   7    2.13    2.15
  25   3  -7    2.63    2.15
 -26  -4   7    0.70    2.32
  26   4  -7    0.50    2.32
 -27  -5   7    0.69    2.32
  27   5  -7    0.29    2.32
 -10  14   7    1.21    2.32
  10 -14  -7    1.95    2.48
 -11  13   7    2.99    2.32
  11 -13  -7    3.83    2.48
 -12  12   7   12.19    2.81
  12 -12  -7   11.75    2.81
 -13  11   7    0.12    2.15
  13 -11  -7    0.51    2.15
 -14  10   7    3.40    2.15
  14 -10  -7    3.40    2.32
 -15   9   7    1.38    1.99
  15  -9  -7    0.99    1.66
  15  -9  -7    1.24    2.15
 -16   8   7   13.84    2.15
  16  -8  -7   15.18    1.99
  16  -8  -7   14.83    2.15
 -17   7   7    4.16    1.99
  17  -7  -7    4.71    1.99
  17  -7  -7    4.01    1.82
 -18   6   7   42.73    2.65
  18  -6  -7   43.87    2.81
  18  -6  -7   43.22    2.65
 -19   5   7    4.72    2.15
  19  -5  -7    6.11    2.15
 -20   4   7   14.76    2.32
  20  -4  -7   16.25    2.65
 -21   3   7   20.87    3.48
  21  -3  -7   21.86    3.64
 -22   2   7    1.25    1.66
  22  -2  -7    1.15    1.82
 -23   1   7   20.65    3.31
  23  -1  -7   22.59    3.64
 -24   0   7   40.78    4.63
  24   0  -7   40.88    4.63
 -25  -1   7   -0.11    2.15
  25   1  -7   -0.36    1.99
 -26  -2   7    1.94    2.15
  26   2  -7    1.75    2.15
 -27  -3   7    1.81    2.15
  27   3  -7    1.56    2.15
 -12  14   7   11.76    2.98
  12 -14  -7   11.36    2.81
 -13  13   7    2.37    2.48
  13 -13  -7    1.33    2.32
 -14  12   7    2.06    2.32
  14 -12  -7    1.61    2.48
 -15  11   7    0.66    2.15
  15 -11  -7    0.51    2.15
 -16  10   7    7.71    2.32
  16 -10  -7    8.46    2.48
 -17   9   7    0.98    2.15
  17  -9  -7    0.83    2.15
  17  -9  -7    0.34    1.82
 -18   8   7    8.92    2.15
  18  -8  -7    8.18    1.99
  18  -8  -7    7.98    2.15
 -19   7   7    7.55    2.15
  19  -7  -7    7.85    2.15
  19  -7  -7    8.69    2.15
 -20   6   7   21.43    2.15
  20  -6  -7   23.37    2.48
 -21   5   7   31.27    3.97
  21  -5  -7   31.96    3.97
 -22   4   7   -0.52    1.82
  22  -4  -7    0.03    1.99
 -23   3   7   17.35    3.14
  23  -3  -7   19.48    3.48
 -24   2   7   13.90    3.14
  24  -2  -7   13.06    3.14
 -25   1   7    0.04    1.99
  25  -1  -7   -0.01    2.15
 -26   0   7    0.87    2.15
  26   0  -7    0.58    2.15
 -27  -1   7   -0.22    2.15
  27   1  -7    0.28    2.15
 -28  -2   7    3.94    2.32
  28   2  -7    3.39    2.32
 -15  13   7    2.02    2.48
  15 -13  -7    0.83    2.48
 -16  12   7    7.62    2.65
  16 -12  -7    8.32    2.81
 -17  11   7   -0.28    2.15
  17 -11  -7   -0.58    2.15
 -18  10   7   19.87    2.32
  18 -10  -7   20.92    2.15
  18 -10  -7   20.42    2.65
 -19   9   7    0.64    2.15
  19  -9  -7    0.69    1.99
  19  -9  -7    0.99    2.15
 -20   8   7   -0.01    1.99
  20  -8  -7    1.58    2.15
  20  -8  -7    0.68    1.99
 -21   7   7   15.32    2.98
  21  -7  -7   17.96    2.98
 -22   6   7    0.00    1.99
  22  -6  -7    1.44    2.15
 -23   5   7   18.60    3.31
  23  -5  -7   21.63    3.64
 -24   4   7   17.22    2.98
  24  -4  -7   17.82    3.31
 -25   3   7    2.03    1.99
  25  -3  -7    1.34    2.15
 -26   2   7    1.45    2.15
  26  -2  -7    1.50    2.15
 -27   1   7    0.28    2.15
  27  -1  -7   -0.52    2.15
 -28   0   7    0.56    2.15
  28   0  -7   -0.38    2.32
 -18  12   7    9.74    2.65
  18 -12  -7    9.04    2.65
 -19  11   7    1.24    2.32
  19 -11  -7    1.39    2.48
 -20  10   7   12.74    2.48
  20 -10  -7   12.94    2.48
  20 -10  -7   12.84    2.15
 -21   9   7    5.25    2.65
  21  -9  -7    5.11    2.48
 -22   8   7    2.08    2.15
  22  -8  -7    3.02    2.15
 -23   7   7   13.91    3.14
  23  -7  -7   13.86    2.81
 -24   6   7   15.35    3.14
  24  -6  -7   16.30    3.14
 -25   5   7    2.35    2.32
  25  -5  -7    0.41    2.32
 -26   4   7    1.39    2.32
  26  -4  -7    0.50    2.32
 -27   3   7    2.01    2.15
  27  -3  -7    2.50    2.32
 -28   2   7    3.64    2.15
  28  -2  -7    3.79    2.32
 -22  10   7    0.96    2.32
  22 -10  -7    1.61    2.15
 -23   9   7    3.44    2.65
  23  -9  -7    2.65    2.32
 -24   8   7   14.76    2.98
  24  -8  -7   14.91    2.81
 -25   7   7    0.38    2.32
  25  -7  -7    0.78    2.32
 -26   6   7    0.79    2.32
  26  -6  -7    0.59    2.32
 -27   5   7   -0.06    2.15
  27  -5  -7    0.93    2.48
 -19   3  -8    1.24    2.32
  18  -4   8    4.74    2.32
 -18   4  -8    4.69    2.32
  17  -5   8    0.21    2.32
 -17   5  -8    0.41    2.15
  16  -6   8   13.86    2.65
 -16   6  -8   13.02    2.48
  15  -7   8    4.07    2.48
 -15   7  -8    4.71    2.15
  14  -8   8    1.12    2.48
 -14   8  -8    0.57    2.32
  13  -9   8    7.99    3.14
 -13   9  -8    6.65    2.81
  12 -10   8    0.39    2.65
 -12  10  -8   -0.11    2.32
 -11  11  -8   16.19    2.48
 -20   0  -8    7.47    3.14
 -19   1  -8    0.98    2.32
 -18   2  -8   12.79    2.48
  17  -3   8    1.19    2.15
 -17   3  -8    1.29    2.15
  16  -4   8    0.74    2.15
 -16   4  -8    0.93    1.99
  15  -5   8    3.83    2.15
 -15   5  -8    4.48    1.99
  14  -6   8    5.85    2.48
 -14   6  -8    5.06    2.32
  13  -7   8   14.31    3.31
 -13   7  -8   16.10    3.31
  12  -8   8   -0.16    2.48
 -12   8  -8    0.14    2.15
  11  -9   8   15.41    2.81
 -11   9  -8   15.51    2.48
  10 -10   8    1.00    2.48
 -10  10  -8    0.31    1.99
   9 -11   8    7.91    2.65
  -9  11  -8    7.11    2.32
   8 -12   8    0.71    2.48
  -8  12  -8    1.26    2.32
 -19  -1  -8    0.93    2.15
 -18   0  -8    9.60    2.15
 -17   1  -8   -0.23    1.99
 -16   2  -8   17.91    2.48
  15  -3   8   12.07    2.15
 -15   3  -8   11.08    1.82
  14  -4   8    0.47    2.15
 -14   4  -8    0.27    1.82
  13  -5   8   17.95    3.14
 -13   5  -8   18.79    3.14
  12  -6   8    0.95    2.32
 -12   6  -8    0.70    1.99
  11  -7   8   42.75    3.64
 -11   7  -8   43.00    3.48
  10  -8   8    0.89    2.15
 -10   8  -8    1.19    1.99
   9  -9   8   14.40    2.65
  -9   9  -8   15.50    2.32
   8 -10   8    2.47    2.48
  -8  10  -8    1.77    1.99
   7 -11   8    1.32    2.81
  -7  11  -8    0.42    2.15
   6 -12   8    0.66    2.65
  -6  12  -8    1.50    2.32
  -5  13  -8    7.59    2.48
 -19  -3  -8    1.29    2.15
 -18  -2  -8   12.09    2.32
 -17  -1  -8    0.52    1.99
 -16   0  -8    7.13    2.15
 -15   1  -8    3.68    1.99
  14  -2   8    7.81    2.15
 -14   2  -8    7.22    2.15
  13  -3   8    9.67    2.98
 -13   3  -8   10.12    2.98
  12  -4   8   -0.10    1.99
 -12   4  -8   -0.25    1.66
  11  -5   8   31.78    2.81
 -11   5  -8   32.73    2.81
  10  -6   8    0.85    1.99
 -10   6  -8    0.55    1.82
   9  -7   8   25.64    2.81
  -9   7  -8   26.59    2.48
   8  -8   8    1.27    2.48
  -8   8  -8    1.86    2.15
   7  -9   8    1.41    2.48
  -7   9  -8    1.66    1.99
  -6  10  -8   -0.48    1.82
  -5  11  -8   15.32    2.48
  -4  12  -8   10.23    2.65
  -3  13  -8    1.03    2.32
 -18  -4  -8    4.94    2.32
 -17  -3  -8    0.94    2.15
 -16  -2  -8   17.72    2.32
 -15  -1  -8    4.17    1.99
 -14   0  -8    4.41    1.99
 -13   1  -8   35.86    4.14
  12  -2   8    3.05    1.99
 -12   2  -8    3.35    1.82
  11  -3   8   28.58    3.14
 -11   3  -8   29.12    2.98
  10  -4   8    2.35    1.82
 -10   4  -8    2.70    1.66
   9  -5   8   19.26    2.15
  -9   5  -8   20.20    1.99
   8  -6   8    1.93    2.15
  -8   6  -8    2.72    1.82
  -7   7  -8    2.62    1.99
  -6   8  -8   13.55    2.48
  -5   9  -8   21.45    2.65
  -5   9  -8   21.85    2.15
  -4  10  -8    6.72    2.48
  -4  10  -8    7.12    2.81
  -3  11  -8    0.51    1.82
  -3  11  -8    0.76    2.15
  -2  12  -8    5.75    2.48
  -2  12  -8    5.95    2.32
  -1  13  -8    1.88    2.32
  -1  13  -8    0.30    2.32
 -17  -5  -8    0.71    2.15
 -16  -4  -8    0.69    1.99
 -15  -3  -8   11.48    1.99
 -14  -2  -8    7.91    2.32
 -13  -1  -8   36.61    4.47
 -12   0  -8   -0.03    1.66
  11  -1   8   69.51    4.63
 -11   1  -8   67.83    4.63
  10  -2   8    4.74    1.66
 -10   2  -8    5.18    1.49
   9  -3   8   20.61    2.15
  -9   3  -8   21.41    2.15
   8  -4   8    4.67    1.99
  -8   4  -8    5.37    1.82
  -7   5  -8    0.88    1.66
  -6   6  -8    0.79    1.66
  -6   6  -8    0.15    1.82
  -5   7  -8   35.75    2.98
  -5   7  -8   34.81    2.65
  -4   8  -8   66.93    4.80
  -4   8  -8   65.84    4.63
  -3   9  -8    2.40    2.48
  -3   9  -8    1.36    1.99
  -2  10  -8    4.02    1.99
  -2  10  -8    2.83    2.15
  -1  11  -8    1.21    1.99
  -1  11  -8   -0.13    1.99
   0  12  -8   15.49    2.65
   0  12  -8   14.50    2.65
   1  13  -8    2.85    2.65
 -16  -6  -8   14.31    2.48
 -15  -5  -8    4.23    2.15
 -14  -4  -8    0.67    1.99
 -13  -3  -8   10.52    2.98
 -12  -2  -8    3.75    1.82
 -11  -1  -8   68.07    4.47
 -10   0  -8    1.21    1.66
   9  -1   8   46.52    2.98
  -9   1  -8   47.81    3.14
   8  -2   8    2.87    1.66
  -8   2  -8    3.27    1.49
  -7   3  -8    1.66    1.66
  -6   4  -8    4.14    1.82
  -6   4  -8    3.64    1.66
  -5   5  -8   54.24    2.98
  -5   5  -8   55.13    2.98
  -4   6  -8    9.12    2.81
  -4   6  -8    8.82    2.65
  -3   7  -8    1.12    1.66
  -3   7  -8    1.02    1.99
  -2   8  -8   37.06    3.48
  -2   8  -8   36.87    3.14
  -1   9  -8   11.65    2.32
  -1   9  -8   10.81    2.65
   0  10  -8   18.81    2.65
   0  10  -8   18.16    2.98
   1  11  -8    1.51    2.32
   1  11  -8    2.75    2.15
   2  12  -8    0.79    2.32
   3  13  -8    1.88    2.48
 -15  -7  -8    4.66    2.15
 -14  -6  -8    4.81    2.15
 -13  -5  -8   18.84    2.98
 -12  -4  -8   -0.45    1.66
 -11  -3  -8   28.98    2.81
 -10  -2  -8    4.89    1.49
  -9  -1  -8   48.16    3.14
   8   0   8    5.51    2.48
  -8   0  -8    5.61    2.48
  -7   1  -8    7.57    2.15
  -6   2  -8    7.23    1.66
  -6   2  -8    6.58    1.49
  -5   3  -8   53.55    2.65
  -5   3  -8   52.90    2.32
  -4   4  -8   54.85    4.97
  -4   4  -8   52.47    4.97
  -3   5  -8    6.74    1.32
  -3   5  -8    6.89    1.82
  -2   6  -8    3.78    1.82
  -2   6  -8    3.83    2.15
  -1   7  -8    4.60    1.99
  -1   7  -8    4.55    1.66
   0   8  -8   51.85    4.14
   0   8  -8   51.94    4.47
   1   9  -8   27.93    3.81
   1   9  -8   27.63    3.97
   2  10  -8    0.32    1.66
   2  10  -8    0.22    1.99
   3  11  -8    2.26    2.32
   4  12  -8    0.46    2.15
   5  13  -8    0.57    2.48
 -14  -8  -8    0.97    2.15
 -13  -7  -8   16.10    3.14
 -12  -6  -8    0.46    1.99
 -11  -5  -8   34.12    2.98
 -10  -4  -8    2.70    1.66
  -9  -3  -8   21.46    1.99
  -8  -2  -8    3.67    1.66
  -7  -1  -8    7.02    1.82
  -6   0  -8   17.22    2.15
  -6   0  -8   17.67    2.32
  -5   1  -8   81.32    3.31
  -5   1  -8   80.58    3.31
  -4   2  -8   41.50    4.97
  -4   2  -8   38.96    4.80
  -3   3  -8    5.57    2.48
  -3   3  -8    5.47    2.15
  -2   4  -8   22.14    2.98
  -2   4  -8   21.39    2.81
  -1   5  -8    2.04    1.82
  -1   5  -8    1.89    1.32
   0   6  -8   39.25    3.81
   0   6  -8   42.38    3.97
   1   7  -8   20.10    2.81
   1   7  -8   22.03    3.31
   2   8  -8    2.61    1.66
   2   8  -8    1.17    1.82
   3   9  -8   19.62    2.81
   3   9  -8   19.23    3.14
   4  10  -8    5.05    1.99
   5  11  -8    1.02    1.99
   6  12  -8    1.15    2.32
   7  13  -8   28.73    2.81
 -13  -9  -8    7.04    2.65
 -12  -8  -8   -0.41    1.99
 -11  -7  -8   43.84    3.31
 -10  -6  -8    1.74    1.82
  -9  -5  -8   20.60    1.99
  -8  -4  -8    4.82    1.66
  -7  -3  -8    1.76    1.49
  -6  -2  -8    6.38    1.49
  -5  -1  -8   81.92    3.31
  -5  -1  -8   81.17    3.31
  -4   0  -8   88.88    8.28
  -4   0  -8   88.08    7.94
  -3   1  -8    4.45    1.49
  -3   1  -8    4.65    1.82
  -2   2  -8   18.92    2.98
  -2   2  -8   17.73    2.81
  -1   3  -8   22.73    3.31
  -1   3  -8   24.27    3.48
   0   4  -8   63.91    4.97
   0   4  -8   61.38    4.80
   1   5  -8    9.93    2.81
   1   5  -8    8.44    2.48
   2   6  -8    2.87    1.49
   2   6  -8    2.77    1.16
   3   7  -8   21.04    2.65
   3   7  -8   19.60    2.15
   4   8  -8    1.35    1.49
   4   8  -8    0.55    1.66
   5   9  -8    2.11    2.15
   6  10  -8    1.15    1.99
   7  11  -8   32.24    2.48
   8  12  -8    0.36    2.15
   9  13  -8    8.99    2.48
 -12 -10  -8   -0.26    2.15
 -12 -10  -8    1.23    2.32
 -11  -9  -8   17.34    2.48
 -11  -9  -8   16.20    2.48
 -10  -8  -8    1.09    1.99
  -9  -7  -8   26.64    2.32
  -8  -6  -8    2.23    1.66
  -7  -5  -8    0.33    1.49
  -6  -4  -8    3.79    1.49
  -5  -3  -8   52.60    2.32
  -4  -2  -8   40.36    4.47
  -4  -2  -8   39.56    4.80
  -3  -1  -8    4.60    1.66
  -3  -1  -8    4.20    1.49
  -2   0  -8   38.46    4.47
  -2   0  -8   39.85    4.47
  -1   1  -8   12.82    3.31
   0   2  -8   75.89    6.79
   0   2  -8   79.91    6.79
   1   3  -8   55.69    5.13
   1   3  -8   53.80    4.97
   2   4  -8    2.26    1.32
   2   4  -8    2.26    0.99
   3   5  -8    5.46    1.49
   3   5  -8    7.15    2.15
   4   6  -8   20.99    1.16
   4   6  -8   20.15    1.49
   5   7  -8    1.76    1.99
   5   7  -8    1.95    1.66
   6   8  -8    1.91    1.82
   7   9  -8   79.24    4.14
   8  10  -8    3.72    2.48
   9  11  -8    6.33    2.15
  10  12  -8    0.11    2.15
  11  13  -8    1.78    2.48
 -11 -11  -8   17.23    2.48
 -10 -10  -8    0.95    2.15
 -10 -10  -8    1.05    2.15
  -9  -9  -8   14.95    2.15
  -8  -8  -8    2.01    1.99
  -7  -7  -8    2.47    1.99
  -6  -6  -8    0.45    1.66
  -5  -5  -8   54.24    2.65
  -4  -4  -8   53.51    4.80
  -3  -3  -8    5.47    2.15
  -2  -2  -8   17.63    2.81
  -2  -2  -8   18.62    2.81
  -1  -1  -8   13.71    3.48
   0   0  -8  114.32    8.94
   0   0  -8  111.49    9.27
   1   1  -8   46.78    5.30
   1   1  -8   48.02    5.30
   2   2  -8    5.44    1.16
   2   2  -8    5.54    1.32
   3   3  -8   35.04    2.98
   3   3  -8   33.00    2.48
   4   4  -8    3.58    0.83
   4   4  -8    4.17    1.49
   5   5  -8    8.97    1.49
   5   5  -8    9.12    0.99
   6   6  -8    2.81    1.82
   6   6  -8    2.96    1.32
   7   7  -8  118.07    5.13
   8   8  -8    3.31    2.15
   9   9  -8   23.46    2.48
  10  10  -8    2.52    2.32
  11  11  -8    1.76    2.15
  12  12  -8    0.50    2.48
  -9 -11  -8    7.11    2.32
  -8 -10  -8    2.92    2.15
  -7  -9  -8    2.11    2.15
  -6  -8  -8   13.55    2.32
  -5  -7  -8   35.70    2.65
  -4  -6  -8   10.31    2.98
  -3  -5  -8    7.19    1.49
  -2  -4  -8   21.29    2.65
  -1  -3  -8   25.71    3.81
   0  -2  -8   77.28    6.95
   0  -2  -8   78.42    6.62
   1  -1  -8   48.47    5.13
   1  -1  -8   46.58    5.30
   2   0  -8    6.24    1.16
   2   0  -8    5.64    1.16
   3   1  -8   41.45    3.14
   3   1  -8   41.20    3.31
   4   2  -8   48.28    1.32
   4   2  -8   48.58    0.99
   5   3  -8    3.46    1.66
   5   3  -8    2.27    1.16
   6   4  -8   10.13    1.99
   6   4  -8    8.59    1.32
   7   5  -8   81.99    4.14
   7   5  -8   81.94    4.47
   8   6  -8    9.61    2.65
   9   7  -8   43.28    2.48
  10   8  -8    4.49    2.65
  11   9  -8    1.40    1.99
  12  10  -8    2.35    2.32
  13  11  -8    0.64    2.32
  14  12  -8    3.01    2.48
  -8 -12  -8    0.81    2.32
  -7 -11  -8    0.02    2.15
  -6 -10  -8    0.71    1.99
  -5  -9  -8   22.05    2.32
  -4  -8  -8   66.48    4.63
  -3  -7  -8    0.72    1.66
  -2  -6  -8    3.83    1.99
  -1  -5  -8    2.93    1.66
   0  -4  -8   64.76    5.46
   1  -3  -8   56.23    5.30
   1  -3  -8   57.53    5.63
  -2   2   8    5.49    1.16
   2  -2  -8    5.39    1.16
   2  -2  -8    5.59    1.16
   3  -1  -8   42.44    3.48
   3  -1  -8   42.34    3.48
   4   0  -8    3.87    1.99
   4   0  -8    4.57    1.82
   5   1  -8    3.70    1.66
   5   1  -8    3.30    1.32
   6   2  -8   25.61    2.15
   6   2  -8   26.75    2.48
   7   3  -8  193.78    9.43
   7   3  -8  201.68    9.43
   8   4  -8    1.06    0.99
   8   4  -8    1.56    1.66
   9   5  -8   11.40    1.82
  10   6  -8   12.92    3.48
  11   7  -8    0.19    1.66
  12   8  -8    5.23    2.32
  13   9  -8   -0.38    1.99
  14  10  -8    5.59    2.48
  15  11  -8   -0.23    2.15
  -6 -12  -8    1.06    2.48
  -5 -11  -8   13.98    2.32
  -4 -10  -8    6.57    2.48
  -3  -9  -8    2.20    2.15
  -2  -8  -8   37.31    3.14
  -1  -7  -8    4.70    1.99
   0  -6  -8   42.72    4.30
   1  -5  -8    9.73    2.81
  -2   4   8    2.35    1.16
   2  -4  -8    2.40    1.32
  -3   3   8   34.64    2.81
   3  -3  -8   35.58    2.81
   3  -3  -8   35.14    2.98
  -4   2   8   48.43    1.16
   4  -2  -8   48.58    1.16
   4  -2  -8   48.08    1.16
  -5   1   8    3.65    1.49
   5  -1  -8    4.05    1.49
   5  -1  -8    3.55    1.49
   6   0  -8    4.29    1.16
   6   0  -8    3.69    1.32
   7   1  -8  162.74    8.11
   7   1  -8  162.89    8.11
   8   2  -8    2.38    1.32
   8   2  -8    2.78    1.82
   9   3  -8  110.82    4.80
   9   3  -8  111.62    5.13
  10   4  -8    4.65    2.32
  11   5  -8    2.53    1.66
  12   6  -8    4.06    2.15
  13   7  -8    1.72    1.82
  14   8  -8   14.45    2.48
  15   9  -8    0.53    2.15
  16  10  -8   17.04    2.81
  17  11  -8    2.96    2.65
  -4 -12  -8    9.49    2.65
  -3 -11  -8    0.71    2.15
  -2 -10  -8    2.63    2.15
  -1  -9  -8   12.64    2.65
   0  -8  -8   52.69    4.47
   1  -7  -8   21.59    3.31
  -2   6   8    2.72    1.49
   2  -6  -8    2.82    1.49
  -3   5   8    7.00    1.99
   3  -5  -8    7.15    1.99
  -4   4   8    3.38    1.32
   4  -4  -8    3.97    1.32
   4  -4  -8    3.48    0.99
  -5   3   8    3.76    1.49
   5  -3  -8    3.36    1.49
   5  -3  -8    3.11    1.49
  -6   2   8   25.66    2.32
   6  -2  -8   26.90    2.48
   6  -2  -8   26.16    2.32
  -7   1   8  163.28    8.44
   7  -1  -8  164.57    8.44
   7  -1  -8  166.36    8.61
  -8   0   8   68.46    5.46
   8   0  -8   67.76    5.46
   8   0  -8   68.56    5.63
  -9  -1   8   38.86    2.65
   9   1  -8   40.75    2.48
   9   1  -8   37.72    2.65
 -10  -2   8    8.01    2.48
  10   2  -8    7.22    2.32
  10   2  -8    8.91    2.98
  11   3  -8   25.75    2.15
  12   4  -8    3.07    2.15
  13   5  -8    1.72    1.66
  14   6  -8    6.28    1.99
  15   7  -8    0.54    1.99
  16   8  -8   72.12    4.14
  17   9  -8    6.04    2.48
  18  10  -8    0.95    2.32
  -3 -13  -8   -0.50    2.32
  -2 -12  -8    5.05    2.32
  -1 -11  -8    0.66    1.99
   0 -10  -8   18.76    2.81
   1  -9  -8   27.63    3.81
   2  -8  -8    2.06    1.82
  -3   7   8   19.84    2.32
   3  -7  -8   20.34    2.48
  -4   6   8   20.05    1.49
   4  -6  -8   20.10    1.49
  -5   5   8    9.41    1.49
   5  -5  -8    9.07    1.49
  -6   4   8   10.23    1.99
   6  -4  -8   10.53    1.99
   6  -4  -8    9.89    1.82
  -7   3   8  203.32   10.59
   7  -3  -8  202.22   10.76
   7  -3  -8  201.18   10.26
  -8   2   8    2.63    1.66
   8  -2  -8    2.63    1.66
   8  -2  -8    2.58    1.49
  -9   1   8   39.65    2.98
   9  -1  -8   41.99    2.98
   9  -1  -8   40.55    3.14
 -10   0   8   45.60    5.63
  10   0  -8   43.61    5.46
  10   0  -8   45.60    5.63
 -11  -1   8    1.45    1.16
  11   1  -8    0.80    0.99
  11   1  -8    0.95    1.49
 -12  -2   8    7.20    1.99
  12   2  -8    6.85    2.32
 -13  -3   8   22.83    1.32
  13   3  -8   23.63    1.99
 -14  -4   8   14.51    2.15
  14   4  -8   14.11    2.81
  15   5  -8    0.46    1.82
  16   6  -8   42.38    3.81
  17   7  -8    4.90    2.48
  18   8  -8    8.13    2.32
  19   9  -8   12.37    2.98
  20  10  -8    5.42    2.48
  -1 -13  -8    0.30    2.32
   0 -12  -8   15.19    2.65
   1 -11  -8    1.36    2.15
   2 -10  -8    0.52    1.99
  -3   9   8   19.03    2.81
   3  -9  -8   19.42    2.98
  -4   8   8    0.31    1.66
   4  -8  -8    0.80    1.82
  -5   7   8    1.06    1.82
   5  -7  -8    1.21    1.82
  -6   6   8    3.15    1.66
   6  -6  -8    2.36    1.66
  -7   5   8   84.58    4.97
   7  -5  -8   84.73    4.63
   7  -5  -8   84.53    4.97
  -8   4   8    1.61    1.66
   8  -4  -8    1.96    1.49
   8  -4  -8    2.16    1.66
  -9   3   8  110.48    5.30
   9  -3  -8  113.41    5.30
   9  -3  -8  113.45    5.13
 -10   2   8    8.16    2.81
  10  -2  -8   10.10    2.98
  10  -2  -8    8.46    2.81
 -11   1   8    1.25    1.49
  11  -1  -8    1.10    1.16
  11  -1  -8    1.40    1.66
 -12   0   8   19.58    2.98
  12   0  -8   18.64    2.81
  12   0  -8   19.58    3.31
 -13  -1   8    1.94    1.49
  13   1  -8    2.34    1.82
 -14  -2   8   13.78    1.99
  14   2  -8   13.53    2.48
 -15  -3   8   10.15    1.82
  15   3  -8    9.81    2.48
 -16  -4   8  129.60    7.12
  16   4  -8  127.01    7.12
 -17  -5   8   11.15    1.99
  17   5  -8    9.96    2.48
  18   6  -8   10.85    2.65
  19   7  -8   13.62    3.31
  20   8  -8    1.20    2.15
  21   9  -8    0.53    2.32
   1 -13  -8    1.51    2.32
   2 -12  -8    1.14    2.15
   3 -11  -8    2.01    1.99
  -4  10   8    4.85    1.99
   4 -10  -8    4.95    1.82
  -5   9   8    1.92    2.15
   5  -9  -8    2.36    2.15
  -6   8   8    2.26    1.82
   6  -8  -8    2.81    1.82
  -7   7   8  118.32    5.30
   7  -7  -8  119.27    5.13
  -8   6   8    9.75    2.65
   8  -6  -8   10.40    2.65
   8  -6  -8   10.20    2.32
  -9   5   8   11.70    1.82
   9  -5  -8   11.70    1.82
   9  -5  -8   11.55    1.49
 -10   4   8    3.95    2.15
  10  -4  -8    5.00    2.15
  10  -4  -8    4.75    2.15
 -11   3   8   25.20    1.82
  11  -3  -8   27.28    1.99
  11  -3  -8   27.04    2.15
 -12   2   8    6.95    2.15
  12  -2  -8    7.35    2.32
  12  -2  -8    8.09    2.15
 -13   1   8    2.14    1.49
  13  -1  -8    1.84    1.32
  13  -1  -8    1.94    1.66
 -14   0   8   22.89    2.98
  14   0  -8   23.59    3.31
 -15  -1   8    2.45    1.49
  15   1  -8    2.36    1.82
 -16  -2   8   63.84    5.63
  16   2  -8   61.76    5.79
 -17  -3   8    4.01    1.82
  17   3  -8    3.11    2.15
 -18  -4   8   27.98    2.65
  18   4  -8   28.57    3.31
 -19  -5   8   34.06    3.81
  19   5  -8   33.81    4.14
 -20  -6   8    1.89    1.82
  20   6  -8    1.09    1.99
  21   7  -8    1.30    2.32
  22   8  -8   -0.18    2.32
   3 -13  -8    2.38    2.32
   4 -12  -8    0.81    1.99
  -5  11   8    1.47    2.15
   5 -11  -8    1.27    1.99
  -6  10   8    1.01    1.99
   6 -10  -8    0.66    1.82
  -7   9   8   80.53    4.30
   7  -9  -8   80.03    4.30
  -8   8   8    3.31    2.15
   8  -8  -8    4.41    2.32
  -9   7   8   43.08    2.32
   9  -7  -8   42.78    2.32
 -10   6   8   11.53    3.14
  10  -6  -8   12.42    3.14
  10  -6  -8   12.02    2.81
 -11   5   8    2.39    1.49
  11  -5  -8    2.58    1.49
  11  -5  -8    2.73    1.49
 -12   4   8    2.37    1.82
  12  -4  -8    3.42    1.82
  12  -4  -8    2.72    1.82
 -13   3   8   23.33    1.82
  13  -3  -8   23.92    1.82
  13  -3  -8   23.82    1.66
 -14   2   8   12.79    1.99
  14  -2  -8   13.93    2.32
  14  -2  -8   13.34    1.82
 -15   1   8    2.26    1.49
  15  -1  -8    2.40    1.66
 -16   0   8  158.19    9.10
  16   0  -8  158.58    9.10
 -17  -1   8   25.19    2.98
  17   1  -8   26.39    3.48
 -18  -2   8    5.42    1.82
  18   2  -8    5.27    2.15
 -19  -3   8   15.87    3.31
  19   3  -8   16.27    3.64
 -20  -4   8    0.22    1.66
  20   4  -8   -0.28    1.99
 -21  -5   8   13.94    2.32
  21   5  -8   13.59    2.48
 -22  -6   8    2.59    1.99
  22   6  -8    1.20    2.15
 -23  -7   8    1.87    2.15
  23   7  -8    1.52    2.32
   5 -13  -8    1.27    2.48
  -6  12   8    0.90    2.15
   6 -12  -8    0.70    2.15
  -7  11   8   32.98    2.65
   7 -11  -8   33.28    2.65
  -8  10   8    3.42    2.48
   8 -10  -8    2.08    2.15
  -9   9   8   23.71    2.65
   9  -9  -8   23.91    2.48
 -10   8   8    4.09    2.48
  10  -8  -8    4.14    2.48
 -11   7   8    0.39    1.82
  11  -7  -8    0.19    1.66
 -12   6   8    4.86    2.32
  12  -6  -8    4.90    2.15
  12  -6  -8    5.10    1.99
 -13   5   8    0.98    1.49
  13  -5  -8    1.47    1.49
  13  -5  -8    1.77    1.49
 -14   4   8   13.56    2.65
  14  -4  -8   14.80    2.48
  14  -4  -8   14.41    2.65
 -15   3   8    8.66    2.15
  15  -3  -8   10.20    1.99
  15  -3  -8   11.15    2.32
 -16   2   8   62.50    5.63
  16  -2  -8   62.01    5.63
 -17   1   8   25.89    3.14
  17  -1  -8   27.48    3.48
 -18   0   8   39.59    3.14
  18   0  -8   40.93    3.64
 -19  -1   8   51.09    5.30
  19   1  -8   52.48    5.63
 -20  -2   8   13.32    2.15
  20   2  -8   12.97    2.48
 -21  -3   8   -0.19    1.82
  21   3  -8   -0.04    1.99
 -22  -4   8    1.56    1.82
  22   4  -8    2.31    1.99
 -23  -5   8   15.85    2.32
  23   5  -8   16.04    2.65
 -24  -6   8    2.79    2.15
  24   6  -8    2.79    2.32
  -7  13   8   27.83    2.65
   7 -13  -8   29.42    2.65
  -8  12   8    1.15    2.32
   8 -12  -8    1.10    2.15
  -9  11   8    6.23    2.32
   9 -11  -8    6.08    1.99
 -10  10   8    2.87    2.48
  10 -10  -8    3.61    2.48
 -11   9   8    1.65    2.15
  11  -9  -8    1.80    1.99
 -12   8   8    4.69    2.32
  12  -8  -8    5.83    2.32
 -13   7   8    1.02    1.82
  13  -7  -8    1.32    1.49
  13  -7  -8    1.32    1.66
 -14   6   8    6.52    1.99
  14  -6  -8    7.52    1.99
  14  -6  -8    7.12    1.99
 -15   5   8    0.31    1.82
  15  -5  -8    1.60    1.82
  15  -5  -8    1.25    1.66
 -16   4   8  126.22    7.28
  16  -4  -8  130.34    7.28
 -17   3   8    3.76    1.99
  17  -3  -8    3.41    2.15
 -18   2   8    5.03    1.99
  18  -2  -8    5.77    2.15
 -19   1   8   49.65    4.97
  19  -1  -8   50.50    5.13
 -20   0   8    2.33    1.82
  20   0  -8    1.29    1.99
 -21  -1   8   11.67    2.15
  21   1  -8   12.17    2.48
 -22  -2   8    0.59    1.82
  22   2  -8    0.34    1.99
 -23  -3   8    0.62    1.99
  23   3  -8    0.62    1.99
 -24  -4   8    1.39    2.15
  24   4  -8    1.09    2.15
 -25  -5   8   19.21    2.65
  25   5  -8   16.72    2.65
  -9  13   8    8.94    2.48
   9 -13  -8    8.79    2.32
 -10  12   8   -0.48    2.32
  10 -12  -8   -0.18    2.15
 -11  11   8    2.41    2.32
  11 -11  -8    1.71    1.82
 -12  10   8    2.00    2.32
  12 -10  -8    2.00    2.15
 -13   9   8   -0.58    1.99
  13  -9  -8   -0.18    1.99
 -14   8   8   14.69    2.48
  14  -8  -8   15.64    2.48
 -15   7   8    0.25    1.99
  15  -7  -8    1.14    1.82
  15  -7  -8    1.04    1.82
 -16   6   8   41.44    3.97
  16  -6  -8   45.21    4.14
  16  -6  -8   44.77    4.14
 -17   5   8   10.85    2.48
  17  -5  -8   11.05    2.48
 -18   4   8   25.94    2.81
  18  -4  -8   28.67    3.14
 -19   3   8   15.72    3.31
  19  -3  -8   16.12    3.64
 -20   2   8   13.77    2.32
  20  -2  -8   12.53    2.48
 -21   1   8   11.52    2.15
  21  -1  -8   11.77    2.48
 -22   0   8    1.76    1.82
  22   0  -8    1.56    2.15
 -23  -1   8    9.39    2.15
  23   1  -8    9.09    2.32
 -24  -2   8    5.31    1.99
  24   2  -8    5.06    1.99
 -25  -3   8    2.90    2.32
  25   3  -8    2.90    2.48
 -26  -4   8    3.72    2.32
  26   4  -8    3.48    2.48
 -11  13   8    1.38    2.48
  11 -13  -8    1.88    2.15
 -12  12   8    0.40    2.32
  12 -12  -8    0.64    2.15
 -13  11   8    0.24    2.32
  13 -11  -8   -0.26    1.82
 -14  10   8    4.40    2.48
  14 -10  -8    4.35    2.15
 -15   9   8    0.03    2.15
  15  -9  -8    0.08    1.82
 -16   8   8   69.24    3.97
  16  -8  -8   73.61    4.14
  16  -8  -8   74.06    4.14
 -17   7   8    4.35    2.32
  17  -7  -8    5.44    2.32
  17  -7  -8    4.80    2.32
 -18   6   8    9.06    2.32
  18  -6  -8   11.30    2.48
 -19   5   8   33.02    3.97
  19  -5  -8   34.51    4.14
 -20   4   8    0.22    1.99
  20  -4  -8    0.17    1.99
 -21   3   8    0.11    1.82
  21  -3  -8    0.60    2.15
 -22   2   8    0.94    1.99
  22  -2  -8    0.44    2.15
 -23   1   8    9.64    2.32
  23  -1  -8    9.64    2.48
 -24   0   8    1.61    2.15
  24   0  -8   -0.58    1.99
 -25  -1   8   11.82    2.48
  25   1  -8   10.83    2.48
 -26  -2   8    2.62    2.48
  26   2  -8    1.97    2.32
 -14  12   8    2.27    2.32
  14 -12  -8    2.52    2.15
 -15  11   8    1.06    2.48
  15 -11  -8    0.62    2.15
 -16  10   8   18.33    2.81
  16 -10  -8   17.98    2.65
 -17   9   8    5.20    2.48
  17  -9  -8    5.00    2.15
 -18   8   8    8.08    2.32
  18  -8  -8    9.67    2.32
  18  -8  -8    8.38    2.15
 -19   7   8   14.36    3.31
  19  -7  -8   15.90    3.48
 -20   6   8    1.69    2.15
  20  -6  -8    1.79    2.15
 -21   5   8   13.09    2.32
  21  -5  -8   13.99    2.48
 -22   4   8    2.16    1.99
  22  -4  -8    2.16    2.15
 -23   3   8    0.38    1.99
  23  -3  -8   -0.32    2.15
 -24   2   8    6.50    2.15
  24  -2  -8    5.31    2.32
 -25   1   8   11.28    2.48
  25  -1  -8   11.08    2.65
 -26   0   8   12.82    2.48
  26   0  -8   11.78    2.48
 -27  -1   8    1.91    2.32
  27   1  -8    1.46    2.32
 -17  11   8    2.56    2.65
  17 -11  -8    2.86    2.48
 -18  10   8    1.35    2.32
  18 -10  -8    0.95    2.32
 -19   9   8   11.23    2.81
  19  -9  -8   11.58    2.65
  19  -9  -8   12.67    2.65
 -20   8   8    1.99    2.15
  20  -8  -8    2.49    2.15
 -21   7   8    0.95    2.15
  21  -7  -8    1.80    2.32
 -22   6   8    1.75    2.15
  22  -6  -8    1.99    2.15
 -23   5   8   16.14    2.48
  23  -5  -8   16.49    2.65
 -24   4   8    0.94    1.99
  24  -4  -8    0.64    2.32
 -25   3   8    3.00    2.32
  25  -3  -8    2.21    2.48
 -26   2   8    3.26    2.65
  26  -2  -8    2.86    2.65
 -27   1   8    1.71    2.15
  27  -1  -8    1.26    2.32
 -20  10   8    5.97    2.48
 -21   9   8    0.93    2.32
  21  -9  -8    1.43    2.32
 -22   8   8    0.46    2.32
  22  -8  -8    0.96    2.32
 -23   7   8    1.82    2.32
  23  -7  -8    1.42    2.32
 -24   6   8    2.39    2.15
  24  -6  -8    2.49    2.32
 -25   5   8   17.17    2.48
  25  -5  -8   18.01    2.81
 -26   4   8    3.13    2.15
  26  -4  -8    3.43    2.48
 -16   4  -9    9.17    2.48
  15  -5   9    6.41    2.98
 -15   5  -9    5.67    2.65
  14  -6   9   12.38    2.48
 -14   6  -9   13.52    2.32
  13  -7   9    2.56    2.81
 -13   7  -9    2.21    2.48
  12  -8   9    1.91    2.65
 -12   8  -9    1.17    2.32
 -17   1  -9    0.28    2.15
 -16   2  -9   10.46    2.48
 -15   3  -9    6.76    2.65
  14  -4   9    5.28    2.32
 -14   4  -9    4.78    1.99
  13  -5   9    2.23    2.48
 -13   5  -9    1.98    2.32
  12  -6   9    0.46    2.48
 -12   6  -9    0.12    2.15
  11  -7   9    1.02    2.48
 -11   7  -9    1.22    2.32
  10  -8   9    0.53    2.48
 -10   8  -9    0.53    2.15
   9  -9   9   18.69    2.98
  -9   9  -9   18.89    2.65
   8 -10   9    1.50    2.65
  -8  10  -9    1.55    2.32
 -16   0  -9   32.56    3.48
 -15   1  -9    8.22    2.81
 -14   2  -9    7.02    1.99
  13  -3   9    1.01    2.32
 -13   3  -9    1.06    2.15
  12  -4   9    4.53    2.32
 -12   4  -9    4.98    2.15
  11  -5   9    0.66    2.32
 -11   5  -9    0.51    1.99
  10  -6   9    2.77    2.32
 -10   6  -9    3.02    2.15
   9  -7   9   39.54    3.48
  -9   7  -9   40.74    3.31
   8  -8   9    0.29    2.48
  -8   8  -9    0.99    2.15
   7  -9   9   23.89    2.98
  -7   9  -9   24.18    2.65
   6 -10   9    2.70    2.81
  -6  10  -9    2.35    2.32
  -5  11  -9    0.26    1.99
 -16  -2  -9   10.76    2.48
 -15  -1  -9    7.33    2.65
 -14   0  -9   24.87    1.99
 -13   1  -9    3.08    2.32
 -12   2  -9    3.85    2.32
  11  -3   9    1.50    2.15
 -11   3  -9    0.91    1.82
  10  -4   9    0.33    2.15
 -10   4  -9   -0.12    1.82
   9  -5   9   37.33    3.31
  -9   5  -9   38.57    2.98
   8  -6   9    2.74    2.32
  -8   6  -9    2.79    1.99
  -7   7  -9   47.62    3.31
  -6   8  -9   10.80    3.14
  -5   9  -9    0.08    2.32
  -5   9  -9   -0.46    1.82
  -4  10  -9    4.75    2.65
  -4  10  -9    4.10    1.99
  -3  11  -9    1.26    1.99
  -3  11  -9    0.46    2.32
 -15  -3  -9    7.91    2.81
 -14  -2  -9    6.92    2.15
 -13  -1  -9    4.87    2.48
 -12   0  -9   -0.39    1.82
 -11   1  -9    3.50    2.15
  10  -2   9    2.25    2.15
 -10   2  -9    1.45    1.82
   9  -3   9   40.74    3.14
  -9   3  -9   41.09    2.98
   8  -4   9    1.33    2.32
  -8   4  -9    1.23    1.99
  -7   5  -9   35.59    2.65
  -6   6  -9    6.08    2.98
  -6   6  -9    5.13    2.48
  -5   7  -9   -0.29    1.66
  -5   7  -9    0.71    2.15
  -4   8  -9   16.80    2.98
  -4   8  -9   15.81    2.65
  -3   9  -9    0.31    2.15
  -3   9  -9    0.90    1.82
  -2  10  -9    1.52    2.32
  -2  10  -9    2.46    1.99
  -1  11  -9    3.36    2.32
  -1  11  -9    4.46    2.15
   0  12  -9    4.16    2.48
 -15  -5  -9    5.37    2.48
 -14  -4  -9    4.23    1.99
 -13  -3  -9    1.16    2.15
 -12  -2  -9    2.61    2.15
 -11  -1  -9    4.25    2.32
 -10   0  -9    4.13    2.15
  -9   1  -9   80.97    4.97
   8  -2   9    4.91    2.15
  -8   2  -9    4.22    1.82
  -7   3  -9   55.75    2.81
  -6   4  -9   11.60    3.48
  -6   4  -9   10.91    3.31
  -5   5  -9    1.37    1.99
  -5   5  -9    1.62    1.66
  -4   6  -9    3.23    2.15
  -4   6  -9    2.49    1.82
  -3   7  -9    2.88    2.15
  -3   7  -9    2.03    1.82
  -2   8  -9   24.06    2.81
  -2   8  -9   22.42    2.32
  -1   9  -9    0.71    2.15
  -1   9  -9    0.61    1.66
   0  10  -9    7.64    2.15
   0  10  -9    6.90    2.48
   1  11  -9    0.00    2.15
   2  12  -9    2.75    2.32
 -14  -6  -9   12.13    2.15
 -13  -5  -9    2.63    2.48
 -12  -4  -9    5.72    2.32
 -11  -3  -9    0.56    1.82
 -10  -2  -9    1.80    1.82
  -9  -1  -9   81.26    4.97
  -8   0  -9    1.02    1.82
  -7   1  -9   86.73    4.97
  -6   2  -9   14.06    3.81
  -6   2  -9   15.45    4.14
  -5   3  -9    1.48    1.99
  -5   3  -9    0.94    1.66
  -4   4  -9   11.42    2.81
  -4   4  -9   11.86    2.98
  -3   5  -9    2.55    1.66
  -3   5  -9    2.65    1.99
  -2   6  -9   -0.19    1.82
  -2   6  -9    0.10    1.49
  -1   7  -9    2.74    1.49
  -1   7  -9    2.74    1.99
   0   8  -9   40.55    3.14
   0   8  -9   40.41    3.48
   1   9  -9    3.03    2.15
   1   9  -9    3.72    2.65
   2  10  -9    2.89    2.15
   3  11  -9    3.27    2.48
   4  12  -9   -0.50    2.32
 -13  -7  -9    3.06    2.65
 -12  -6  -9    0.42    2.15
 -11  -5  -9    1.40    2.15
 -10  -4  -9    0.38    1.99
  -9  -3  -9   41.19    2.98
  -8  -2  -9    4.62    1.82
  -7  -1  -9   86.48    4.80
  -6   0  -9   14.12    3.48
  -5   1  -9    0.45    1.66
  -5   1  -9    0.45    1.66
  -4   2  -9   19.37    2.81
  -4   2  -9   19.92    2.81
  -3   3  -9    7.75    1.99
  -3   3  -9    8.19    2.48
  -2   4  -9   16.44    1.82
  -2   4  -9   16.94    2.32
  -1   5  -9    5.17    1.32
  -1   5  -9    6.12    1.82
   0   6  -9    3.49    1.99
   0   6  -9    3.59    1.49
   1   7  -9    2.49    2.32
   1   7  -9    1.99    1.82
   2   8  -9   14.61    1.82
   2   8  -9   14.11    2.32
   3   9  -9   17.52    3.14
   4  10  -9    0.17    2.15
   5  11  -9   14.02    2.48
   6  12  -9    0.04    2.48
 -12  -8  -9    0.97    2.32
 -11  -7  -9    1.92    2.32
 -10  -6  -9    3.87    2.32
  -9  -5  -9   39.56    3.14
  -8  -4  -9    1.53    1.99
  -7  -3  -9   55.35    2.65
  -6  -2  -9   15.35    3.97
  -5  -1  -9    0.40    1.49
  -4   0  -9   14.90    3.31
  -4   0  -9   14.20    3.14
  -3   1  -9    4.12    1.82
  -3   1  -9    3.77    1.99
  -2   2  -9   10.06    1.82
  -2   2  -9   10.51    1.66
  -1   3  -9    2.13    1.82
  -1   3  -9    1.63    1.32
   0   4  -9   57.22    3.81
   0   4  -9   52.90    3.48
   1   5  -9    4.17    1.99
   1   5  -9    3.22    1.49
   2   6  -9    0.55    1.32
   2   6  -9    0.95    1.82
   3   7  -9   11.88    2.48
   3   7  -9   13.37    2.98
   4   8  -9   -0.08    1.82
   5   9  -9   36.76    2.98
   6  10  -9    0.70    1.99
   7  11  -9    0.71    2.15
   8  12  -9   -0.69    2.32
 -10  -8  -9    1.22    2.32
  -9  -7  -9   43.17    3.64
  -8  -6  -9    2.69    1.99
  -7  -5  -9   36.49    2.65
  -6  -4  -9   12.30    3.48
  -5  -3  -9    0.49    1.66
  -4  -2  -9   20.62    2.98
  -3  -1  -9    3.62    1.66
  -3  -1  -9    4.07    1.66
  -2   0  -9   20.57    2.15
  -2   0  -9   21.47    2.32
  -1   1  -9    4.87    1.66
  -1   1  -9    4.28    1.32
   0   2  -9   25.83    2.32
   0   2  -9   26.27    2.32
   1   3  -9    6.40    2.48
   1   3  -9    4.76    2.15
   2   4  -9   24.83    1.82
   2   4  -9   26.32    2.32
   3   5  -9    7.11    1.99
   3   5  -9    9.64    2.65
   4   6  -9    0.48    1.32
   4   6  -9    0.19    1.66
   5   7  -9   38.13    3.14
   6   8  -9    0.48    1.99
   7   9  -9    3.77    2.32
   8  10  -9    1.66    1.99
   9  11  -9    5.52    2.32
  -9  -9  -9   19.19    2.65
  -8  -8  -9    1.88    2.32
  -7  -7  -9   49.01    3.31
  -6  -6  -9    5.58    2.48
  -5  -5  -9    1.67    1.82
  -4  -4  -9   11.07    2.65
  -3  -3  -9    7.35    1.99
  -2  -2  -9   10.51    1.66
  -1  -1  -9    5.47    1.49
  -1  -1  -9    4.68    1.49
   0   0  -9   83.08    5.30
   0   0  -9   83.63    5.30
   1   1  -9    4.69    2.15
   1   1  -9    4.83    2.15
   2   2  -9    3.10    1.32
   2   2  -9    2.90    1.49
   3   3  -9   16.51    2.98
   3   3  -9   17.40    3.48
   4   4  -9    0.85    1.82
   4   4  -9    0.50    1.16
   5   5  -9   45.43    2.65
   5   5  -9   44.18    2.15
   6   6  -9    1.65    2.15
   7   7  -9    2.80    1.99
   8   8  -9    0.44    1.99
   9   9  -9   19.43    2.65
  10  10  -9    0.95    2.32
  11  11  -9    3.20    2.32
  -8 -10  -9    1.50    2.32
  -7  -9  -9   24.18    2.48
  -6  -8  -9   11.60    3.14
  -5  -7  -9    0.31    1.82
  -4  -6  -9    2.88    1.82
  -3  -5  -9    2.99    1.66
  -2  -4  -9   17.83    2.15
  -1  -3  -9    2.57    1.66
   0  -2  -9   25.48    2.15
   0  -2  -9   27.37    2.48
   1  -1  -9    4.88    2.15
   1  -1  -9    4.98    2.15
   2   0  -9   48.35    2.81
   2   0  -9   49.24    2.98
   3   1  -9   24.92    3.81
   3   1  -9   24.73    3.97
   4   2  -9    2.37    1.16
   4   2  -9    3.06    1.66
   5   3  -9   43.24    2.98
   5   3  -9   42.15    2.65
   6   4  -9    3.08    1.16
   6   4  -9    3.03    1.66
   7   5  -9    4.06    1.66
   8   6  -9    0.57    1.82
   9   7  -9   19.25    2.32
  10   8  -9    3.26    2.32
  11   9  -9   15.74    2.32
  12  10  -9    9.48    2.48
  13  11  -9   -0.03    2.32
  -6 -10  -9    2.40    2.32
  -5  -9  -9    0.08    1.99
  -4  -8  -9   17.55    2.81
  -3  -7  -9    1.98    1.82
  -2  -6  -9    0.05    1.66
  -1  -5  -9    6.02    1.66
   0  -4  -9   56.57    3.97
   1  -3  -9    6.30    2.48
   2  -2  -9    3.69    1.32
   2  -2  -9    3.29    1.49
   3  -1  -9   25.02    3.97
   3  -1  -9   25.32    3.97
   4   0  -9    2.04    1.32
   4   0  -9    1.60    1.32
   5   1  -9   87.03    4.30
   5   1  -9   86.53    3.97
   6   2  -9    3.80    1.82
   6   2  -9    4.15    2.15
   7   3  -9    1.35    1.66
   7   3  -9    0.95    1.16
   8   4  -9    3.85    1.82
   9   5  -9   33.19    2.32
  10   6  -9    7.42    2.48
  11   7  -9   11.30    2.15
  12   8  -9   17.76    3.14
  13   9  -9    2.23    1.99
  14  10  -9    5.85    2.48
  -5 -11  -9   -0.29    2.15
  -4 -10  -9    4.05    2.15
  -3  -9  -9    0.55    1.99
  -2  -8  -9   23.76    2.48
  -1  -7  -9    2.64    1.82
   0  -6  -9    4.58    1.82
   1  -5  -9    4.32    1.82
   2  -4  -9   26.32    2.15
   3  -3  -9   16.81    3.14
   3  -3  -9   16.81    2.98
   4  -2  -9    2.22    1.32
   4  -2  -9    2.66    1.32
   5  -1  -9   87.32    4.14
   5  -1  -9   86.58    4.14
   6   0  -9    2.76    1.66
   6   0  -9    3.60    1.49
   7   1  -9   17.57    1.66
   7   1  -9   18.22    1.99
   8   2  -9    2.08    1.16
   8   2  -9    1.88    1.49
   9   3  -9   31.00    2.48
  10   4  -9    1.56    1.82
  11   5  -9   18.87    2.32
  12   6  -9   32.44    3.14
  13   7  -9    0.30    1.99
  14   8  -9   21.43    3.31
  15   9  -9    2.63    2.48
  16  10  -9   -0.22    2.32
  -3 -11  -9    0.61    2.15
  -2 -10  -9    1.62    2.15
  -1  -9  -9    1.35    1.99
   0  -8  -9   42.39    3.64
   1  -7  -9    3.18    2.15
   2  -6  -9    1.04    1.66
  -3   5   9    8.95    2.32
   3  -5  -9    8.90    2.48
   4  -4  -9    0.25    1.49
   5  -3  -9   43.10    2.98
   5  -3  -9   43.44    2.98
   6  -2  -9    3.85    1.82
   6  -2  -9    3.70    1.99
   7  -1  -9   17.77    1.82
   7  -1  -9   17.97    1.66
   8   0  -9    3.57    1.82
   8   0  -9    3.03    1.49
   9   1  -9   63.65    2.81
   9   1  -9   63.26    3.14
  10   2  -9    5.43    2.32
  11   3  -9   26.18    2.65
  12   4  -9    4.94    2.32
  13   5  -9    1.70    1.99
  14   6  -9   20.67    3.48
  15   7  -9   11.92    2.81
  16   8  -9    3.63    2.48
  17   9  -9    6.28    2.48
  -1 -11  -9    3.66    2.15
   0 -10  -9    8.44    2.48
   1  -9  -9    3.43    2.48
   2  -8  -9   15.30    2.32
  -3   7   9   12.73    2.65
   3  -7  -9   12.13    2.81
  -4   6   9    0.28    1.66
   4  -6  -9    0.68    1.66
  -5   5   9   46.72    2.65
   5  -5  -9   45.67    2.65
  -6   4   9    3.67    1.66
   6  -4  -9    3.13    1.49
   6  -4  -9    3.08    1.32
  -7   3   9    1.25    1.49
   7  -3  -9    1.35    1.49
   7  -3  -9    1.55    1.49
   8  -2  -9    2.57    1.32
   8  -2  -9    2.97    1.49
   9  -1  -9   63.11    2.81
   9  -1  -9   62.51    2.98
  10   0  -9   11.99    2.65
  10   0  -9   11.64    2.15
  11   1  -9   27.18    2.32
  12   2  -9   47.47    4.30
  13   3  -9    2.80    1.66
  14   4  -9   10.18    2.65
  15   5  -9    2.25    2.15
  16   6  -9    1.63    2.15
  17   7  -9   15.25    2.65
  18   8  -9    5.91    2.32
   0 -12  -9    4.95    2.48
   1 -11  -9    1.09    2.15
   2 -10  -9    3.49    2.15
   3  -9  -9   17.12    2.81
  -4   8   9   -0.52    1.82
   4  -8  -9    0.17    1.82
  -5   7   9   37.39    2.81
   5  -7  -9   36.40    2.65
  -6   6   9    2.19    2.15
   6  -6  -9    3.53    2.32
  -7   5   9    4.55    1.66
   7  -5  -9    4.75    1.66
  -8   4   9    4.19    1.66
   8  -4  -9    4.74    1.66
   8  -4  -9    4.09    1.49
  -9   3   9   30.90    2.32
   9  -3  -9   32.14    2.48
   9  -3  -9   32.64    2.48
 -10   2   9    6.67    2.32
  10  -2  -9    7.07    2.32
  10  -2  -9    6.22    2.48
 -11   1   9   26.88    1.99
  11  -1  -9   26.83    1.66
  11  -1  -9   27.28    2.32
  12   0  -9   31.11    4.14
  13   1  -9    0.59    1.82
  14   2  -9   48.48    4.80
  15   3  -9    9.31    2.65
  16   4  -9    1.30    2.15
  17   5  -9    1.12    1.99
  18   6  -9    0.78    1.99
  19   7  -9    1.99    2.32
  20   8  -9    5.14    2.32
   2 -12  -9    3.29    2.32
   3 -11  -9    2.43    2.32
   4 -10  -9   -0.07    1.99
  -5   9   9   36.81    2.98
   5  -9  -9   37.40    3.14
  -6   8   9    1.07    2.15
   6  -8  -9    0.87    1.99
  -7   7   9    3.54    1.99
   7  -7  -9    2.80    1.82
  -8   6   9    0.92    1.82
   8  -6  -9    1.36    1.82
  -9   5   9   34.23    2.32
   9  -5  -9   34.58    2.32
 -10   4   9    0.47    1.49
  10  -4  -9    0.42    1.49
  10  -4  -9    1.26    1.49
 -11   3   9   25.48    2.32
  11  -3  -9   27.12    2.32
  11  -3  -9   27.22    2.48
 -12   2   9   46.88    4.30
  12  -2  -9   49.51    4.14
  12  -2  -9   48.07    4.30
 -13   1   9    0.04    1.49
  13  -1  -9   -0.01    1.66
 -14   0   9   23.39    3.48
  14   0  -9   26.62    3.97
  15   1  -9   16.26    3.14
  16   2  -9   14.37    2.65
  17   3  -9   17.78    2.81
  18   4  -9    4.77    1.99
  19   5  -9    3.13    1.99
  20   6  -9    3.28    2.32
  21   7  -9   12.37    2.48
   4 -12  -9   -0.45    2.15
  -5  11   9   13.42    2.32
   5 -11  -9   14.51    2.48
  -6  10   9    0.50    1.99
   6 -10  -9    1.94    2.32
  -7   9   9    4.12    2.32
   7  -9  -9    4.07    2.32
  -8   8   9    1.09    2.15
   8  -8  -9    1.38    2.15
  -9   7   9   17.96    2.15
   9  -7  -9   18.50    2.15
 -10   6   9    8.66    2.65
  10  -6  -9    7.37    2.32
 -11   5   9   18.77    2.15
  11  -5  -9   18.63    1.99
  11  -5  -9   19.52    1.99
 -12   4   9    5.38    2.15
  12  -4  -9    5.38    1.99
  12  -4  -9    4.59    1.99
 -13   3   9    3.00    1.66
  13  -3  -9    3.20    1.66
  13  -3  -9    3.05    1.32
 -14   2   9   46.40    4.14
  14  -2  -9   46.59    4.30
 -15   1   9   17.85    3.31
  15  -1  -9   17.60    3.31
 -16   0   9    2.18    1.82
  16   0  -9    1.98    2.15
 -17  -1   9   15.65    2.65
  17   1  -9   15.50    2.98
 -18  -2   9    5.21    1.66
  18   2  -9    4.47    1.99
  19   3  -9    2.22    2.15
  20   4  -9    9.75    2.15
  21   5  -9    1.85    2.32
  22   6  -9   -0.66    2.15
  -6  12   9   -0.21    2.32
   6 -12  -9    0.09    2.32
  -7  11   9    0.12    2.15
   7 -11  -9    0.96    2.15
  -8  10   9    2.36    2.15
   8 -10  -9    1.57    1.99
  -9   9   9   19.83    2.65
   9  -9  -9   20.97    2.81
 -10   8   9    3.01    2.32
  10  -8  -9    3.81    2.32
 -11   7   9   11.49    2.15
  11  -7  -9   10.50    1.82
 -12   6   9   33.23    3.14
  12  -6  -9   34.27    3.14
 -13   5   9    1.46    1.82
  13  -5  -9    1.80    1.66
  13  -5  -9    1.65    1.66
 -14   4   9    9.58    2.48
  14  -4  -9   10.43    2.65
  14  -4  -9    9.93    2.32
 -15   3   9    9.16    2.32
  15  -3  -9    9.91    2.48
 -16   2   9   13.18    2.32
  16  -2  -9   14.12    2.48
 -17   1   9   15.65    2.81
  17  -1  -9   16.64    3.14
 -18   0   9    7.83    1.82
  18   0  -9    6.94    1.99
 -19  -1   9    1.57    1.99
  19   1  -9    1.22    2.32
 -20  -2   9    1.49    1.82
  20   2  -9    1.24    1.99
 -21  -3   9   13.88    1.99
  21   3  -9   14.48    2.48
  22   4  -9    0.75    2.15
  23   5  -9    9.70    2.65
  -8  12   9   -0.25    2.32
   8 -12  -9   -0.34    2.15
  -9  11   9    5.72    2.32
   9 -11  -9    5.97    2.32
 -10  10   9    0.55    2.32
  10 -10  -9    0.00    1.99
 -11   9   9   16.49    2.65
  11  -9  -9   16.53    2.48
 -12   8   9   17.31    2.98
  12  -8  -9   18.21    2.98
 -13   7   9    0.50    1.99
  13  -7  -9   -0.05    1.82
 -14   6   9   18.83    3.14
  14  -6  -9   19.83    3.14
  14  -6  -9   20.97    3.14
 -15   5   9    3.69    2.32
  15  -5  -9    3.10    1.99
  15  -5  -9    3.00    2.15
 -16   4   9    0.85    1.99
  16  -4  -9    1.10    1.99
 -17   3   9   17.08    2.48
  17  -3  -9   18.27    2.81
 -18   2   9    5.21    1.82
  18  -2  -9    5.11    1.99
 -19   1   9    0.77    1.82
  19  -1  -9    1.27    2.32
 -20   0   9   14.11    1.99
  20   0  -9   14.41    2.32
 -21  -1   9   10.59    2.48
  21   1  -9    9.90    2.81
 -22  -2   9    2.51    1.99
  22   2  -9    2.61    2.15
 -23  -3   9   20.67    2.65
  23   3  -9   20.17    2.98
 -10  12   9    1.96    2.48
 -11  11   9    3.50    2.32
  11 -11  -9    3.54    2.15
 -12  10   9    8.79    2.48
  12 -10  -9    9.08    2.32
 -13   9   9    2.18    1.99
  13  -9  -9    2.82    1.99
 -14   8   9   21.38    3.31
  14  -8  -9   22.37    3.31
 -15   7   9   12.26    2.81
  15  -7  -9   11.32    2.65
 -16   6   9    1.34    1.99
  16  -6  -9    1.38    1.82
  16  -6  -9    2.13    1.99
 -17   5   9    2.42    2.15
  17  -5  -9    2.22    2.15
 -18   4   9    4.92    1.82
  18  -4  -9    5.97    1.99
 -19   3   9    1.47    1.99
  19  -3  -9    1.77    2.15
 -20   2   9    1.19    1.82
  20  -2  -9    1.49    2.15
 -21   1   9    9.85    2.48
  21  -1  -9   10.84    2.81
 -22   0   9    1.68    1.99
  22   0  -9    1.53    2.15
 -23  -1   9   22.87    2.98
  23   1  -9   23.02    3.48
 -24  -2   9    8.37    2.81
  24   2  -9    7.37    2.81
 -13  11   9   -0.33    2.32
  13 -11  -9    0.12    2.32
 -14  10   9    7.09    2.65
  14 -10  -9    5.60    2.48
 -15   9   9    2.58    2.48
  15  -9  -9    2.73    2.32
 -16   8   9    3.13    2.48
  16  -8  -9    3.78    2.32
 -17   7   9   15.74    2.81
  17  -7  -9   15.45    2.81
 -18   6   9    0.93    1.99
  18  -6  -9    0.83    1.99
 -19   5   9    3.83    2.15
  19  -5  -9    3.68    2.15
 -20   4   9   10.00    2.32
  20  -4  -9   10.89    2.32
 -21   3   9   13.68    2.32
  21  -3  -9   13.93    2.48
 -22   2   9    1.96    1.99
  22  -2  -9    2.06    2.15
 -23   1   9   23.67    3.14
  23  -1  -9   23.62    3.48
 -24   0   9    5.29    2.65
  24   0  -9    4.55    2.81
 -25  -1   9    2.67    2.15
 -16  10   9   -0.32    2.48
  16 -10  -9   -0.52    2.15
 -17   9   9    5.78    2.48
  17  -9  -9    6.13    2.48
 -18   8   9    5.76    2.32
 -19   7   9    2.49    2.32
  19  -7  -9    2.68    2.32
 -20   6   9    1.89    2.15
  20  -6  -9    3.57    2.32
 -21   5   9    1.00    2.32
  21  -5  -9    2.44    2.48
 -22   4   9    1.55    2.32
  22  -4  -9    0.90    2.32
 -23   3   9   19.18    2.81
  23  -3  -9   20.57    3.14
 -24   2   9    7.17    2.65
  24  -2  -9    7.77    2.98
 -25   1   9    2.92    2.15
 -20   8   9    5.69    2.48
 -21   7   9   12.92    2.65
  21  -7  -9   14.31    2.81
 -22   6   9    0.14    2.32
  22  -6  -9    1.18    2.48
 -23   5   9   10.50    2.81
  23  -5  -9   11.39    3.14
 -24   4   9    2.59    2.65
 -12   4 -10    5.45    2.15
  11  -5  10   30.85    3.64
 -11   5 -10   30.60    3.48
  10  -6  10    2.32    2.65
 -10   6 -10    1.03    2.32
 -13   1 -10    1.42    2.15
 -12   2 -10    6.95    2.15
 -11   3 -10   20.10    3.14
  10  -4  10    2.68    2.65
 -10   4 -10    8.10    3.14
   9  -5  10    6.75    2.48
  -9   5 -10    7.84    2.48
   8  -6  10    7.99    2.98
  -8   6 -10    6.95    2.48
   7  -7  10    1.54    2.48
  -7   7 -10    0.50    1.99
  -6   8 -10    1.06    2.15
 -13  -1 -10    0.58    1.99
 -12   0 -10   20.14    2.48
 -11   1 -10   33.69    3.14
 -10   2 -10    2.34    2.32
   9  -3  10    1.95    2.32
  -9   3 -10    2.05    2.15
   8  -4  10    8.57    2.98
  -8   4 -10    9.61    2.81
   7  -5  10    1.14    2.32
  -7   5 -10    0.64    1.99
  -6   6 -10   10.69    2.15
  -5   7 -10    3.18    2.32
  -5   7 -10    3.23    1.82
  -4   8 -10   -0.23    2.32
  -4   8 -10   -0.28    1.82
  -3   9 -10   11.70    2.65
  -3   9 -10   10.01    1.99
 -12  -2 -10    7.05    2.32
 -11  -1 -10   36.32    3.81
 -10   0 -10    1.97    1.99
  -9   1 -10    9.74    2.32
  -8   2 -10    8.09    2.65
  -7   3 -10   -0.13    1.82
  -6   4 -10    7.12    2.15
  -5   5 -10    3.15    1.66
  -5   5 -10    3.40    1.99
  -4   6 -10    2.69    1.99
  -4   6 -10    1.85    2.15
  -3   7 -10    6.19    1.66
  -3   7 -10    6.94    2.32
  -2   8 -10    7.24    2.81
  -2   8 -10    6.00    2.15
  -1   9 -10    0.68    2.48
  -1   9 -10    0.13    1.82
   0  10 -10   12.89    2.81
 -11  -3 -10   20.15    2.98
 -10  -2 -10    2.39    2.32
  -9  -1 -10   10.78    2.48
  -8   0 -10    6.41    2.65
  -7   1 -10    4.26    1.99
  -6   2 -10   12.14    2.32
  -5   3 -10    5.05    1.66
  -5   3 -10    5.10    1.99
  -4   4 -10   -0.28    1.66
  -4   4 -10   -0.13    1.99
  -3   5 -10    5.04    1.66
  -3   5 -10    6.43    2.15
  -2   6 -10    8.95    2.32
  -2   6 -10   10.15    2.81
  -1   7 -10    5.32    2.65
  -1   7 -10    3.78    1.99
   0   8 -10   22.38    2.81
   0   8 -10   21.93    2.15
   1   9 -10    4.07    2.65
   2  10 -10    2.65    2.32
 -11  -5 -10   31.39    3.48
 -10  -4 -10    2.98    2.32
  -9  -3 -10    1.35    1.99
  -8  -2 -10    8.59    2.65
  -7  -1 -10    3.62    1.82
  -6   0 -10   10.08    2.15
  -5   1 -10    8.94    1.82
  -4   2 -10    3.97    1.82
  -4   2 -10    3.92    1.99
  -3   3 -10   14.22    1.66
  -3   3 -10   13.63    1.82
  -2   4 -10    8.50    2.81
  -2   4 -10    7.61    2.32
  -1   5 -10    2.57    1.82
  -1   5 -10    2.82    2.32
   0   6 -10   10.10    1.82
   0   6 -10   11.59    2.48
   1   7 -10   13.06    2.48
   1   7 -10   16.64    3.31
   2   8 -10    7.26    1.82
   2   8 -10    7.36    2.32
   3   9 -10    0.79    2.32
   4  10 -10   -0.64    2.15
 -10  -6 -10    1.97    2.48
  -9  -5 -10    6.55    2.15
  -8  -4 -10    9.66    2.81
  -7  -3 -10   -0.18    1.82
  -6  -2 -10   13.03    2.48
  -5  -1 -10    8.74    1.66
  -4   0 -10    0.27    1.49
  -3   1 -10   15.70    1.99
  -3   1 -10   14.86    1.82
  -2   2 -10   25.67    3.31
  -2   2 -10   28.00    3.64
  -1   3 -10    4.26    2.48
  -1   3 -10    4.16    1.99
   0   4 -10   22.45    2.65
   0   4 -10   21.30    2.15
   1   5 -10    7.69    2.48
   1   5 -10    6.69    1.99
   2   6 -10    0.84    1.99
   2   6 -10    1.04    1.49
   3   7 -10    2.53    1.99
   3   7 -10    2.28    2.48
   4   8 -10    2.67    2.15
   5   9 -10    0.36    2.32
   6  10 -10    1.26    2.48
  -8  -6 -10    8.69    2.65
  -7  -5 -10    1.54    1.99
  -6  -4 -10    7.37    2.15
  -5  -3 -10    5.30    1.82
  -4  -2 -10    4.02    1.82
  -3  -1 -10   15.55    1.66
  -2   0 -10   13.34    2.65
  -1   1 -10    2.91    2.15
  -1   1 -10    3.31    1.99
   0   2 -10   31.90    2.98
   0   2 -10   31.85    3.14
   1   3 -10   16.84    2.81
   1   3 -10   18.43    3.31
   2   4 -10    3.18    1.32
   2   4 -10    3.78    1.82
   3   5 -10    0.91    1.49
   3   5 -10    1.21    1.99
   4   6 -10    0.78    1.99
   4   6 -10    0.68    1.49
   5   7 -10    3.15    2.32
   6   8 -10    1.30    2.15
   7   9 -10   14.89    2.65
   8  10 -10    0.41    2.32
  -7  -7 -10    1.54    2.15
  -6  -6 -10   12.28    2.32
  -5  -5 -10    3.84    1.82
  -4  -4 -10    0.66    1.82
  -3  -3 -10   13.97    1.66
  -2  -2 -10   26.86    3.31
  -1  -1 -10    3.31    1.99
   0   0 -10   34.42    3.14
   0   0 -10   34.02    3.14
   1   1 -10   15.30    3.14
   1   1 -10   14.91    2.98
   2   2 -10    4.86    1.49
   2   2 -10    5.11    1.82
   3   3 -10    1.55    1.66
   3   3 -10    2.54    2.15
   4   4 -10    2.83    1.99
   4   4 -10    1.94    1.32
   5   5 -10    0.25    1.32
   5   5 -10    0.60    1.99
   6   6 -10    0.15    1.99
   7   7 -10   36.22    3.31
   8   8 -10    0.50    2.32
   9   9 -10   19.26    2.48
  10  10 -10    6.89    2.65
  -6  -8 -10    1.36    2.15
  -5  -7 -10    4.17    1.99
  -4  -6 -10    1.75    1.82
  -3  -5 -10    5.59    1.82
  -2  -4 -10    8.50    2.48
  -1  -3 -10    4.71    2.15
   0  -2 -10   32.39    3.14
   1  -1 -10   16.99    3.14
   1  -1 -10   14.51    2.98
   2   0 -10    8.55    1.49
   2   0 -10    9.05    1.66
   3   1 -10    3.35    2.15
   3   1 -10    3.35    1.99
   4   2 -10    1.68    1.49
   4   2 -10    0.88    1.82
   5   3 -10    0.58    1.82
   5   3 -10    0.39    1.32
   6   4 -10    1.14    1.32
   6   4 -10    0.99    1.82
   7   5 -10   33.88    2.81
   8   6 -10    1.71    2.15
   9   7 -10   38.51    3.14
  10   8 -10    7.36    2.81
  11   9 -10    0.11    2.32
  -4  -8 -10    0.56    1.99
  -3  -7 -10    6.59    1.99
  -2  -6 -10    9.80    2.32
  -1  -5 -10    2.92    1.82
   0  -4 -10   22.99    2.48
   1  -3 -10   18.18    3.14
   2  -2 -10    5.26    1.66
   3  -1 -10    3.69    1.99
   3  -1 -10    2.80    1.99
   4   0 -10    9.66    1.49
   4   0 -10    9.76    1.66
   5   1 -10    6.19    1.99
   5   1 -10    6.19    1.66
   6   2 -10   -0.05    1.82
   6   2 -10    0.00    1.32
   7   3 -10   27.32    2.65
   7   3 -10   26.43    2.15
   8   4 -10    0.32    1.99
   9   5 -10   42.94    2.81
  10   6 -10   22.53    3.97
  11   7 -10    2.05    2.15
  12   8 -10    3.39    2.48
  13   9 -10    2.94    2.48
  -3  -9 -10   10.61    2.15
  -2  -8 -10    8.48    2.65
  -1  -7 -10    5.27    2.32
   0  -6 -10   11.00    2.15
   1  -5 -10    7.49    2.15
   2  -4 -10    4.52    1.66
   3  -3 -10    2.20    1.82
   4  -2 -10    1.63    1.66
   5  -1 -10    6.34    1.82
   5  -1 -10    6.48    1.66
   6   0 -10    5.40    1.66
   6   0 -10    6.05    1.49
   7   1 -10   74.25    4.30
   7   1 -10   72.51    4.63
   8   2 -10    0.37    1.82
   8   2 -10    0.52    1.32
   9   3 -10   25.42    2.65
  10   4 -10   13.71    3.14
  11   5 -10   -0.19    1.99
  12   6 -10   19.94    3.31
  13   7 -10    1.37    2.15
  14   8 -10    0.21    2.15
  -1  -9 -10    0.88    2.15
   0  -8 -10   23.32    2.65
   1  -7 -10   15.94    2.98
   2  -6 -10    1.84    1.82
   3  -5 -10    1.11    1.82
   4  -4 -10    2.33    1.66
   5  -3 -10    0.83    1.49
   6  -2 -10    0.64    1.66
   6  -2 -10    1.09    1.49
   7  -1 -10   73.65    4.47
   7  -1 -10   75.29    4.80
   8   0 -10    0.65    1.82
   8   0 -10    1.59    1.49
   9   1 -10   78.47    4.80
  10   2 -10   15.79    3.81
  11   3 -10    0.23    1.82
  12   4 -10    7.16    2.48
  13   5 -10    6.94    2.48
  14   6 -10    5.80    2.32
  15   7 -10    5.71    2.15
  16   8 -10    1.04    2.15
   0 -10 -10   12.74    2.48
   1  -9 -10    3.68    2.15
   2  -8 -10    7.31    1.99
   3  -7 -10    2.73    2.15
   4  -6 -10    0.93    1.82
   5  -5 -10    0.65    1.82
   6  -4 -10    1.54    1.66
   7  -3 -10   27.22    2.32
   8  -2 -10    0.77    1.49
   8  -2 -10    1.56    1.82
   9  -1 -10   78.37    4.30
   9  -1 -10   77.13    4.47
  10   0 -10   43.41    4.97
  11   1 -10    0.59    1.82
  12   2 -10   13.95    3.48
  13   3 -10    7.88    2.65
  14   4 -10    0.82    2.15
  15   5 -10    3.12    1.99
  16   6 -10   13.28    2.48
  17   7 -10    0.70    2.32
   2 -10 -10    3.55    2.15
   3  -9 -10    0.39    2.15
   4  -8 -10    2.72    1.99
   5  -7 -10    2.80    1.99
   6  -6 -10   -0.25    1.82
   7  -5 -10   35.22    2.81
   8  -4 -10    0.27    1.66
   9  -3 -10   26.61    2.48
   9  -3 -10   26.31    2.48
  10  -2 -10   14.55    3.31
  10  -2 -10   16.09    3.48
  11  -1 -10    0.93    1.82
  12   0 -10   43.02    4.14
  13   1 -10    6.25    2.48
  14   2 -10    2.58    1.99
  15   3 -10    9.48    1.99
  16   4 -10   -0.18    1.99
  17   5 -10    0.89    2.32
  18   6 -10    7.07    2.48
   4 -10 -10   -0.09    2.15
   5  -9 -10    0.16    2.15
  -6   8  10    1.05    2.15
   6  -8 -10    1.80    2.15
  -7   7  10   35.63    3.14
   7  -7 -10   39.10    3.48
   8  -6 -10    3.15    1.99
   9  -5 -10   43.93    2.81
  10  -4 -10   13.95    2.81
  11  -3 -10    0.93    1.49
  11  -3 -10    0.38    1.82
  12  -2 -10   13.90    3.31
  13  -1 -10    5.75    2.48
  14   0 -10   11.56    1.99
  15   1 -10    7.63    1.99
  16   2 -10   18.30    2.65
  17   3 -10    1.22    2.32
  18   4 -10    1.10    2.32
  19   5 -10    4.96    2.32
  -6  10  10   -0.53    2.15
   6 -10 -10   -0.13    2.15
  -7   9  10   14.69    2.48
   7  -9 -10   13.89    2.32
  -8   8  10   -0.64    2.15
   8  -8 -10    0.50    2.15
  -9   7  10   38.66    3.14
   9  -7 -10   38.76    2.98
 -10   6  10   21.64    3.64
  10  -6 -10   21.74    3.64
 -11   5  10    0.21    1.99
  11  -5 -10    0.01    1.66
  12  -4 -10    6.36    2.15
  12  -4 -10    6.81    2.15
  13  -3 -10    7.13    2.32
  14  -2 -10    2.73    1.82
  15  -1 -10    7.58    1.82
  16   0 -10    8.04    2.48
  17   1 -10    0.84    2.15
  18   2 -10    9.68    2.65
  19   3 -10   15.99    2.98
  20   4 -10   -0.41    2.15
  -8  10  10    1.26    2.32
   8 -10 -10    0.76    2.32
  -9   9  10   20.75    2.65
   9  -9 -10   19.75    2.48
 -10   8  10    6.51    2.65
  10  -8 -10    7.51    2.65
 -11   7  10    0.71    1.99
  11  -7 -10    1.56    2.15
 -12   6  10   21.28    3.48
  12  -6 -10   21.67    3.48
 -13   5  10    7.83    2.48
  13  -5 -10    7.13    2.15
 -14   4  10    0.47    1.82
  14  -4 -10    0.37    1.82
  15  -3 -10   10.82    1.99
  16  -2 -10   18.15    2.48
  17  -1 -10    0.39    2.15
  18   0 -10    4.94    2.32
  19   1 -10   15.62    2.98
  20   2 -10   -0.24    2.15
  21   3 -10   18.60    3.14
 -10  10  10    6.54    2.65
 -11   9  10    0.16    2.32
  11  -9 -10   -0.38    2.15
 -12   8  10    3.83    2.48
  12  -8 -10    4.18    2.48
 -13   7  10    1.86    2.32
  13  -7 -10    2.56    2.15
 -14   6  10    6.19    2.32
  14  -6 -10    5.85    2.15
 -15   5  10    3.41    1.99
  15  -5 -10    4.01    1.99
 -16   4  10    0.21    1.99
  16  -4 -10    0.16    1.99
 -17   3  10    0.33    1.99
  17  -3 -10    1.07    2.15
 -18   2  10    7.69    2.15
  18  -2 -10    7.94    2.32
  19  -1 -10   15.82    2.98
  20   0 -10   -0.31    2.15
  21   1 -10   17.86    3.31
 -13   9  10    2.54    2.32
  13  -9 -10    1.45    2.32
 -14   8  10   -0.28    2.15
  14  -8 -10   -0.04    2.15
 -15   7  10    6.35    2.32
  15  -7 -10    5.16    1.99
 -16   6  10   14.27    2.48
 -17   5  10   -0.16    2.15
  17  -5 -10   -0.46    1.99
 -18   4  10    0.61    2.15
  18  -4 -10    1.35    2.15
 -19   3  10   16.69    2.81
  19  -3 -10   15.65    2.98
 -20   2  10   -0.59    1.99
  20  -2 -10   -0.59    2.15
 -21   1  10   17.37    2.98
  21  -1 -10   16.67    3.14
  22   0 -10    2.71    2.81
 -16   8  10    1.04    2.32
 -17   7  10   -0.34    2.32
 -18   6  10    7.72    2.48
 -19   5  10    6.25    2.48
  19  -5 -10    6.55    2.48
 -20   4  10   -0.46    2.15
  20  -4 -10    0.18    2.32
 -21   3  10   18.20    2.98
  21  -3 -10   18.45    3.14
 -22   2  10    9.04    2.81
  -7   3 -11    7.97    2.15
  -6   4 -11    0.88    2.15
  -5   5 -11    0.49    2.15
  -5   5 -11   -0.56    2.32
  -8   0 -11    0.86    1.99
  -7   1 -11    5.96    1.99
  -6   2 -11    2.29    2.32
  -5   3 -11    3.82    2.15
  -5   3 -11    4.27    2.48
  -4   4 -11   21.50    2.48
  -4   4 -11   22.04    2.81
  -3   5 -11    7.39    2.81
  -3   5 -11    5.45    2.15
  -2   6 -11    9.36    2.15
  -2   6 -11    8.07    2.32
  -1   7 -11    1.50    1.82
  -1   7 -11    2.35    2.48
  -7  -1 -11    6.46    2.15
  -6   0 -11    1.73    2.32
  -5   1 -11    1.76    1.99
  -4   2 -11   28.60    2.81
  -3   3 -11    1.39    1.82
  -3   3 -11    0.74    2.15
  -2   4 -11    2.25    1.82
  -2   4 -11    2.30    2.15
  -1   5 -11    2.62    2.15
  -1   5 -11    3.07    2.81
   0   6 -11    2.43    1.82
   0   6 -11    2.18    2.32
   1   7 -11    0.73    1.82
   1   7 -11    0.98    2.48
  -7  -3 -11    8.51    2.15
  -6  -2 -11    2.39    2.15
  -5  -1 -11    1.76    1.82
  -4   0 -11   26.75    2.65
  -3   1 -11    1.13    1.99
  -2   2 -11   12.42    1.99
  -2   2 -11   12.76    2.48
  -1   3 -11    5.24    2.15
  -1   3 -11    4.59    1.66
   0   4 -11   -0.44    2.15
   0   4 -11   -0.09    1.82
   1   5 -11    1.15    1.82
   1   5 -11    2.14    2.32
   2   6 -11    4.57    1.82
   2   6 -11    5.57    2.48
   3   7 -11    3.74    2.48
  -6  -4 -11    1.73    2.32
  -5  -3 -11    3.58    1.99
  -4  -2 -11   31.13    3.31
  -3  -1 -11    1.18    1.99
  -2   0 -11    3.47    1.82
  -1   1 -11    2.56    2.15
   0   2 -11    7.53    2.15
   0   2 -11    7.88    1.82
   1   3 -11    1.15    1.66
   1   3 -11    2.10    2.15
   2   4 -11    1.21    2.15
   2   4 -11    1.07    1.82
   3   5 -11   10.16    1.82
   3   5 -11    9.71    2.32
   4   6 -11    5.87    2.15
   5   7 -11   13.75    2.81
  -5  -5 -11    0.73    1.99
  -4  -4 -11   22.49    2.65
  -3  -3 -11    1.54    1.99
  -2  -2 -11   12.61    2.15
  -1  -1 -11    2.21    1.99
   0   0 -11   -0.37    1.66
   1   1 -11   -0.01    1.82
   1   1 -11    0.09    1.99
   2   2 -11   17.02    2.15
   2   2 -11   17.57    1.99
   3   3 -11    4.45    1.99
   3   3 -11    4.31    1.66
   4   4 -11    5.17    1.99
   4   4 -11    4.42    1.66
   5   5 -11   21.11    3.48
   6   6 -11    1.07    2.32
   7   7 -11    3.95    2.48
  -3  -5 -11    7.44    2.48
  -2  -4 -11    2.25    1.82
  -1  -3 -11    4.54    1.82
   0  -2 -11    8.68    1.99
   1  -1 -11    1.04    1.82
   2   0 -11    3.38    1.66
   3   1 -11   10.58    1.99
   3   1 -11   11.12    2.32
   4   2 -11   15.33    1.99
   4   2 -11   14.59    1.99
   5   3 -11   14.69    2.15
   5   3 -11   16.98    2.81
   6   4 -11    4.14    2.48
   7   5 -11    6.31    2.48
   8   6 -11    4.72    2.65
   9   7 -11    1.86    2.48
  -2  -6 -11    9.51    2.15
  -1  -5 -11    3.17    2.32
   0  -4 -11   -0.24    1.82
   1  -3 -11    1.45    1.82
   2  -2 -11   18.21    2.15
   3  -1 -11   11.12    2.15
   4   0 -11   15.28    1.66
   4   0 -11   14.79    1.82
   5   1 -11   26.91    3.14
   5   1 -11   29.09    3.81
   6   2 -11    1.03    1.82
   6   2 -11    1.68    2.15
   7   3 -11    1.39    2.15
   8   4 -11   10.41    2.98
   9   5 -11    3.15    2.32
  10   6 -11    5.86    2.32
   0  -6 -11    2.83    1.99
   1  -5 -11    3.03    2.15
   2  -4 -11    1.41    1.82
   3  -3 -11    4.45    1.82
   4  -2 -11   15.23    1.82
   5  -1 -11   26.66    3.14
   6   0 -11    2.02    2.15
   6   0 -11    0.38    1.66
   7   1 -11   11.11    2.65
   7   1 -11    9.82    1.99
   8   2 -11    9.51    2.48
   9   3 -11    0.55    1.99
  10   4 -11   12.47    2.65
  11   5 -11    6.58    2.15
  12   6 -11    0.08    2.32
   1  -7 -11    0.54    1.99
   2  -6 -11    5.67    1.99
   3  -5 -11   11.70    2.32
   4  -4 -11    4.77    1.66
   5  -3 -11   15.09    2.32
   6  -2 -11    1.43    1.82
   7  -1 -11   10.71    2.32
   7  -1 -11   10.66    2.48
   8   0 -11    3.77    2.32
   8   0 -11    4.21    1.99
   9   1 -11    6.41    2.15
  10   2 -11   10.70    2.32
  11   3 -11    1.34    2.15
  12   4 -11    3.74    2.48
  13   5 -11    1.21    2.32
   3  -7 -11    4.84    2.32
   4  -6 -11    5.32    1.82
   5  -5 -11   20.47    2.98
   6  -4 -11    4.34    2.15
   7  -3 -11    0.59    1.66
   8  -2 -11    9.07    1.99
   9  -1 -11    6.81    1.82
   9  -1 -11    6.86    2.15
  10   0 -11   13.20    2.65
  11   1 -11   14.29    1.99
  12   2 -11    1.30    2.15
  13   3 -11    0.03    1.99
  14   4 -11    6.34    2.48
  15   5 -11    1.65    2.32
   5  -7 -11   15.04    2.81
   6  -6 -11    0.72    1.99
   7  -5 -11    6.21    2.15
   8  -4 -11    9.91    2.48
   9  -3 -11   -0.04    1.66
  10  -2 -11   10.20    1.99
  10  -2 -11   10.85    1.82
  11  -1 -11   14.64    1.99
  12   0 -11    9.41    2.65
  13   1 -11    4.32    1.99
  14   2 -11    5.81    2.32
  15   3 -11    1.92    2.48
  16   4 -11    5.53    2.32
   7  -7 -11    3.65    2.32
   8  -6 -11    5.66    2.48
   9  -5 -11    2.06    1.99
  10  -4 -11   11.42    2.15
  12  -2 -11    0.35    1.99
  13  -1 -11    4.67    1.99
  14   0 -11   17.81    2.81
  15   1 -11    0.73    2.15
  16   2 -11    8.55    2.48
  17   3 -11    0.59    2.32
   9  -7 -11    1.56    1.99
  10  -6 -11    7.70    2.32
  11  -5 -11    6.68    1.82
  13  -3 -11   -0.02    1.82
  14  -2 -11    5.86    2.15
  15  -1 -11    1.13    2.15
  16   0 -11   14.88    2.65
  17   1 -11    1.00    2.32
  12  -6 -11    1.27    2.15
  15  -3 -11    2.36    2.32
  16  -2 -11    8.80    2.48
  17  -1 -11    1.64    2.48
  18   0 -11    0.50    2.48
  17  -3 -11    1.79    2.48
   1   1 -12    0.76    2.15
   2   2 -12   14.46    2.48
   1  -1 -12    0.32    1.99
   2   0 -12    8.06    1.82
   3   1 -12    9.70    2.98
   4   2 -12    1.14    1.99
   4   2 -12    0.64    2.15
   5   3 -12    4.78    2.15
   3  -1 -12    8.91    2.81
   4   0 -12    6.24    1.82
   5   1 -12    0.36    1.82
   5   1 -12    0.46    2.15
   6   2 -12    0.12    2.15
   4  -2 -12    1.14    2.15
   5  -1 -12    0.66    1.82
   6   0 -12    0.32    1.66
   7   1 -12    3.53    2.15
   8   2 -12    0.90    2.15
   6  -2 -12    0.67    1.99
   7  -1 -12    2.69    1.82
   8   0 -12    4.77    1.99
   9   1 -12   10.34    2.65
   8  -2 -12    0.80    1.82
  10   0 -12    5.33    2.81
   0   0   0    0.00    0.00
;
_shelx_hkl_checksum              21963

